/*---------------------------------------------------------------------------*\
| =========                 |                                                 |
| \\      /  F ield         | OpenFOAM: The Open Source CFD Toolbox           |
|  \\    /   O peration     | Version:  v2006                                 |
|   \\  /    A nd           | Website:  www.openfoam.com                      |
|    \\/     M anipulation  |                                                 |
\*---------------------------------------------------------------------------*/
Build  : _b45f8f6f58-20200629 OPENFOAM=2006
Arch   : "LSB;label=32;scalar=64"
Exec   : olaFlow
Date   : Aug 26 2021
Time   : 13:46:58
Host   : u-vbaconnet
PID    : 47533
I/O    : uncollated
Case   : /mount/internal/work-in/projects/I0042_Knu/vBaconnet/Knu/Tutoriels/olaFlow/obstaclePoreux
nProcs : 1
trapFpe: Floating point exception trapping enabled (FOAM_SIGFPE).
fileModificationChecking : Monitoring run-time modified files using timeStampMaster (fileModificationSkew 5, maxFileModificationPolls 20)
allowSystemOperations : Allowing user-supplied system call operations

// * * * * * * * * * * * * * * * * * * * * * * * * * * * * * * * * * * * * * //
Create time

Create mesh for time = 5


PIMPLE: Operating solver in PISO mode

Reading field porosityIndex

Porosity activated
Reading porosity variables

Number of materials: 4
a        = 4(0 50 50 50)
b        = 4(0 1.2 2 0.6)
c        = 4(0 0.34 0.34 0.34)
D50      = 4(1 0.01 0.035 0.12)
porosity = 4(1 0.49 0.493 0.5)
Transient formulation is 0

Creating fields: porosity, aPor, bPor, cPor and D50Por

Reading field p_rgh

Reading field U

Reading/calculating face flux field phi

Reading transportProperties

Selecting incompressible transport model Newtonian
Selecting incompressible transport model Newtonian
Selecting turbulence model type RAS
Selecting RAS turbulence model kOmegaSST
Selecting patchDistMethod meshWave
RAS
{
    RASModel        kOmegaSST;
    turbulence      on;
    printCoeffs     on;
    alphaK1         0.85;
    alphaK2         1;
    alphaOmega1     0.5;
    alphaOmega2     0.856;
    gamma1          0.555556;
    gamma2          0.44;
    beta1           0.075;
    beta2           0.0828;
    betaStar        0.09;
    a1              0.31;
    b1              1;
    c1              10;
    F3              false;
    decayControl    false;
    kInf            0;
    omegaInf        0;
}


Reading g

Reading hRef
Calculating field g.h

No MRF models present

No finite volume options present
Restarting alpha
DICPCG:  Solving for pcorr, Initial residual = 1, Final residual = 8.74252e-06, No Iterations 216
time step continuity errors : sum local = 9.08485e-12, global = -1.78564e-13, cumulative = -0.00167908
Courant Number mean: 0.0368048 max: 0.424603

Starting time loop

Courant Number mean: 0.0368048 max: 0.424603
Interface Courant Number mean: 0.00387321 max: 0.417069
deltaT = 0.00357143
Time = 5.00357

PIMPLE: iteration 1
MULES: Solving for alpha.water
alpha.water BC on patch inlet
Phase-1 volume fraction = 0.681219  Min(alpha.water) = 0  Max(alpha.water) = 1.0001
alpha.water BC on patch inlet
MULES: Solving for alpha.water
alpha.water BC on patch inlet
Phase-1 volume fraction = 0.681244  Min(alpha.water) = 0  Max(alpha.water) = 1.0001
DICPCG:  Solving for p_rgh, Initial residual = 0.00067332, Final residual = 3.32813e-05, No Iterations 27
time step continuity errors : sum local = 0.000384493, global = 3.89098e-07, cumulative = -0.00167869
DICPCG:  Solving for p_rgh, Initial residual = 3.28561e-05, Final residual = 1.61785e-06, No Iterations 49
Velocity BC on patch inlet
3D_2D Absorption BC on patch outlet
"Correction Levels" 1( 0.000261704 )

time step continuity errors : sum local = 1.90654e-05, global = 1.40861e-07, cumulative = -0.00167855
DICPCG:  Solving for p_rgh, Initial residual = 2.91403e-06, Final residual = 9.59518e-08, No Iterations 79
Velocity BC on patch inlet
3D_2D Absorption BC on patch outlet
"Correction Levels" 1( 0.000261704 )

time step continuity errors : sum local = 1.1423e-06, global = 4.87374e-08, cumulative = -0.0016785
smoothSolver:  Solving for omega, Initial residual = 0.000694294, Final residual = 5.04845e-09, No Iterations 2
smoothSolver:  Solving for k, Initial residual = 0.00100468, Final residual = 6.03481e-10, No Iterations 2
ExecutionTime = 1.16 s  ClockTime = 2 s

Courant Number mean: 0.0384492 max: 0.448021
Interface Courant Number mean: 0.00401205 max: 0.423966
deltaT = 0.00357143
Time = 5.00714

PIMPLE: iteration 1
alpha.water BC on patch inlet
MULES: Solving for alpha.water
alpha.water BC on patch inlet
Phase-1 volume fraction = 0.681269  Min(alpha.water) = 0  Max(alpha.water) = 1.0001
alpha.water BC on patch inlet
MULES: Solving for alpha.water
alpha.water BC on patch inlet
Phase-1 volume fraction = 0.681294  Min(alpha.water) = 0  Max(alpha.water) = 1.0001
Velocity BC on patch inlet
3D_2D Absorption BC on patch outlet
"Correction Levels" 1( 0.000290061 )

DICPCG:  Solving for p_rgh, Initial residual = 0.000670361, Final residual = 1.90602e-05, No Iterations 3
time step continuity errors : sum local = 0.000220153, global = 1.72891e-07, cumulative = -0.00167833
DICPCG:  Solving for p_rgh, Initial residual = 1.94661e-05, Final residual = 8.98635e-07, No Iterations 16
Velocity BC on patch inlet
3D_2D Absorption BC on patch outlet
"Correction Levels" 1( 0.000290061 )

time step continuity errors : sum local = 1.03799e-05, global = -4.58841e-07, cumulative = -0.00167879
DICPCG:  Solving for p_rgh, Initial residual = 1.56043e-06, Final residual = 9.44726e-08, No Iterations 37
Velocity BC on patch inlet
3D_2D Absorption BC on patch outlet
"Correction Levels" 1( 0.000290061 )

time step continuity errors : sum local = 1.09119e-06, global = 7.74964e-09, cumulative = -0.00167878
smoothSolver:  Solving for omega, Initial residual = 0.000694604, Final residual = 5.11319e-09, No Iterations 2
smoothSolver:  Solving for k, Initial residual = 0.00100191, Final residual = 6.12795e-10, No Iterations 2
ExecutionTime = 1.47 s  ClockTime = 2 s

Courant Number mean: 0.038485 max: 0.44794
Interface Courant Number mean: 0.00398249 max: 0.44794
deltaT = 0.00357143
Time = 5.01071

PIMPLE: iteration 1
alpha.water BC on patch inlet
MULES: Solving for alpha.water
alpha.water BC on patch inlet
Phase-1 volume fraction = 0.681318  Min(alpha.water) = 0  Max(alpha.water) = 1.0001
alpha.water BC on patch inlet
MULES: Solving for alpha.water
alpha.water BC on patch inlet
Phase-1 volume fraction = 0.681343  Min(alpha.water) = 0  Max(alpha.water) = 1.0001
Velocity BC on patch inlet
3D_2D Absorption BC on patch outlet
"Correction Levels" 1( 0.000318482 )

DICPCG:  Solving for p_rgh, Initial residual = 0.000670494, Final residual = 1.90281e-05, No Iterations 3
time step continuity errors : sum local = 0.000219725, global = 2.66876e-08, cumulative = -0.00167875
DICPCG:  Solving for p_rgh, Initial residual = 1.94137e-05, Final residual = 8.9678e-07, No Iterations 16
Velocity BC on patch inlet
3D_2D Absorption BC on patch outlet
"Correction Levels" 1( 0.000318482 )

time step continuity errors : sum local = 1.03557e-05, global = -4.66342e-07, cumulative = -0.00167922
DICPCG:  Solving for p_rgh, Initial residual = 1.5768e-06, Final residual = 9.13806e-08, No Iterations 44
Velocity BC on patch inlet
3D_2D Absorption BC on patch outlet
"Correction Levels" 1( 0.000318482 )

time step continuity errors : sum local = 1.05524e-06, global = -9.18241e-08, cumulative = -0.00167931
smoothSolver:  Solving for omega, Initial residual = 0.000694983, Final residual = 5.14663e-09, No Iterations 2
smoothSolver:  Solving for k, Initial residual = 0.000999508, Final residual = 6.16752e-10, No Iterations 2
ExecutionTime = 1.79 s  ClockTime = 2 s

Courant Number mean: 0.0385196 max: 0.441636
Interface Courant Number mean: 0.00401722 max: 0.441636
deltaT = 0.00357143
Time = 5.01429

PIMPLE: iteration 1
alpha.water BC on patch inlet
MULES: Solving for alpha.water
alpha.water BC on patch inlet
Phase-1 volume fraction = 0.681367  Min(alpha.water) = 0  Max(alpha.water) = 1.0001
alpha.water BC on patch inlet
MULES: Solving for alpha.water
alpha.water BC on patch inlet
Phase-1 volume fraction = 0.681391  Min(alpha.water) = 0  Max(alpha.water) = 1.0001
Velocity BC on patch inlet
3D_2D Absorption BC on patch outlet
"Correction Levels" 1( 0.000347035 )

DICPCG:  Solving for p_rgh, Initial residual = 0.000675737, Final residual = 1.91406e-05, No Iterations 3
time step continuity errors : sum local = 0.00022099, global = -1.15781e-07, cumulative = -0.00167943
DICPCG:  Solving for p_rgh, Initial residual = 1.95231e-05, Final residual = 9.75446e-07, No Iterations 15
Velocity BC on patch inlet
3D_2D Absorption BC on patch outlet
"Correction Levels" 1( 0.000347035 )

time step continuity errors : sum local = 1.12624e-05, global = -4.87695e-07, cumulative = -0.00167991
DICPCG:  Solving for p_rgh, Initial residual = 1.63899e-06, Final residual = 9.83405e-08, No Iterations 42
Velocity BC on patch inlet
3D_2D Absorption BC on patch outlet
"Correction Levels" 1( 0.000347035 )

time step continuity errors : sum local = 1.13543e-06, global = -5.50623e-08, cumulative = -0.00167997
smoothSolver:  Solving for omega, Initial residual = 0.000695301, Final residual = 5.18198e-09, No Iterations 2
smoothSolver:  Solving for k, Initial residual = 0.000996522, Final residual = 6.16062e-10, No Iterations 2
ExecutionTime = 2.09 s  ClockTime = 3 s

Courant Number mean: 0.0385522 max: 0.440626
Interface Courant Number mean: 0.0040251 max: 0.430107
deltaT = 0.00357143
Time = 5.01786

PIMPLE: iteration 1
alpha.water BC on patch inlet
MULES: Solving for alpha.water
alpha.water BC on patch inlet
Phase-1 volume fraction = 0.681415  Min(alpha.water) = 0  Max(alpha.water) = 1.0001
alpha.water BC on patch inlet
MULES: Solving for alpha.water
alpha.water BC on patch inlet
Phase-1 volume fraction = 0.681438  Min(alpha.water) = 0  Max(alpha.water) = 1.0001
Velocity BC on patch inlet
3D_2D Absorption BC on patch outlet
"Correction Levels" 1( 0.000375701 )

DICPCG:  Solving for p_rgh, Initial residual = 0.000681961, Final residual = 1.91931e-05, No Iterations 3
time step continuity errors : sum local = 0.000221566, global = 5.04704e-08, cumulative = -0.00167992
DICPCG:  Solving for p_rgh, Initial residual = 1.95815e-05, Final residual = 8.5966e-07, No Iterations 16
Velocity BC on patch inlet
3D_2D Absorption BC on patch outlet
"Correction Levels" 1( 0.000375701 )

time step continuity errors : sum local = 9.92436e-06, global = -4.76243e-07, cumulative = -0.0016804
DICPCG:  Solving for p_rgh, Initial residual = 1.56574e-06, Final residual = 9.81389e-08, No Iterations 41
Velocity BC on patch inlet
3D_2D Absorption BC on patch outlet
"Correction Levels" 1( 0.000375701 )

time step continuity errors : sum local = 1.13296e-06, global = -3.06489e-08, cumulative = -0.00168043
smoothSolver:  Solving for omega, Initial residual = 0.000695671, Final residual = 5.25418e-09, No Iterations 2
smoothSolver:  Solving for k, Initial residual = 0.000993061, Final residual = 6.18617e-10, No Iterations 2
ExecutionTime = 2.4 s  ClockTime = 3 s

Courant Number mean: 0.038587 max: 0.439796
Interface Courant Number mean: 0.00403033 max: 0.434101
deltaT = 0.00373377
Time = 5.02159

PIMPLE: iteration 1
alpha.water BC on patch inlet
MULES: Solving for alpha.water
alpha.water BC on patch inlet
Phase-1 volume fraction = 0.681462  Min(alpha.water) = 0  Max(alpha.water) = 1.0001
alpha.water BC on patch inlet
MULES: Solving for alpha.water
alpha.water BC on patch inlet
Phase-1 volume fraction = 0.681486  Min(alpha.water) = 0  Max(alpha.water) = 1.0001
Velocity BC on patch inlet
3D_2D Absorption BC on patch outlet
"Correction Levels" 1( 0.000405774 )

DICPCG:  Solving for p_rgh, Initial residual = 0.000715029, Final residual = 2.01201e-05, No Iterations 3
time step continuity errors : sum local = 0.000253554, global = 6.43737e-08, cumulative = -0.00168036
DICPCG:  Solving for p_rgh, Initial residual = 2.0473e-05, Final residual = 1.00042e-06, No Iterations 15
Velocity BC on patch inlet
3D_2D Absorption BC on patch outlet
"Correction Levels" 1( 0.000405774 )

time step continuity errors : sum local = 1.26079e-05, global = -5.03976e-07, cumulative = -0.00168087
DICPCG:  Solving for p_rgh, Initial residual = 1.74585e-06, Final residual = 9.9657e-08, No Iterations 42
Velocity BC on patch inlet
3D_2D Absorption BC on patch outlet
"Correction Levels" 1( 0.000405774 )

time step continuity errors : sum local = 1.25594e-06, global = -4.43384e-08, cumulative = -0.00168091
smoothSolver:  Solving for omega, Initial residual = 0.000727609, Final residual = 6.43391e-09, No Iterations 2
smoothSolver:  Solving for k, Initial residual = 0.00103491, Final residual = 7.77235e-10, No Iterations 2
ExecutionTime = 2.71 s  ClockTime = 3 s

Courant Number mean: 0.0403825 max: 0.457072
Interface Courant Number mean: 0.00422787 max: 0.452024
deltaT = 0.00373377
Time = 5.02532

PIMPLE: iteration 1
alpha.water BC on patch inlet
MULES: Solving for alpha.water
alpha.water BC on patch inlet
Phase-1 volume fraction = 0.681509  Min(alpha.water) = 0  Max(alpha.water) = 1.0001
alpha.water BC on patch inlet
MULES: Solving for alpha.water
alpha.water BC on patch inlet
Phase-1 volume fraction = 0.681533  Min(alpha.water) = 0  Max(alpha.water) = 1.0001
Velocity BC on patch inlet
3D_2D Absorption BC on patch outlet
"Correction Levels" 1( 0.000435944 )

DICPCG:  Solving for p_rgh, Initial residual = 0.000712176, Final residual = 2.0113e-05, No Iterations 3
time step continuity errors : sum local = 0.000253428, global = 9.83733e-09, cumulative = -0.0016809
DICPCG:  Solving for p_rgh, Initial residual = 2.04363e-05, Final residual = 1.00961e-06, No Iterations 15
Velocity BC on patch inlet
3D_2D Absorption BC on patch outlet
"Correction Levels" 1( 0.000435944 )

time step continuity errors : sum local = 1.27217e-05, global = -4.72716e-07, cumulative = -0.00168137
DICPCG:  Solving for p_rgh, Initial residual = 1.77452e-06, Final residual = 9.85431e-08, No Iterations 37
Velocity BC on patch inlet
3D_2D Absorption BC on patch outlet
"Correction Levels" 1( 0.000435944 )

time step continuity errors : sum local = 1.24172e-06, global = 8.14636e-08, cumulative = -0.00168129
smoothSolver:  Solving for omega, Initial residual = 0.000727869, Final residual = 6.5418e-09, No Iterations 2
smoothSolver:  Solving for k, Initial residual = 0.00103079, Final residual = 7.91573e-10, No Iterations 2
ExecutionTime = 3 s  ClockTime = 4 s

Courant Number mean: 0.0404275 max: 0.46218
Interface Courant Number mean: 0.00421634 max: 0.443558
deltaT = 0.00355597
Time = 5.02888

PIMPLE: iteration 1
alpha.water BC on patch inlet
MULES: Solving for alpha.water
alpha.water BC on patch inlet
Phase-1 volume fraction = 0.681554  Min(alpha.water) = 0  Max(alpha.water) = 1.0001
alpha.water BC on patch inlet
MULES: Solving for alpha.water
alpha.water BC on patch inlet
Phase-1 volume fraction = 0.681576  Min(alpha.water) = 0  Max(alpha.water) = 1.0001
Velocity BC on patch inlet
3D_2D Absorption BC on patch outlet
"Correction Levels" 1( 0.000464756 )

DICPCG:  Solving for p_rgh, Initial residual = 0.000677669, Final residual = 1.93328e-05, No Iterations 3
time step continuity errors : sum local = 0.000221201, global = 2.43059e-07, cumulative = -0.00168105
DICPCG:  Solving for p_rgh, Initial residual = 1.96671e-05, Final residual = 9.71129e-07, No Iterations 15
Velocity BC on patch inlet
3D_2D Absorption BC on patch outlet
"Correction Levels" 1( 0.000464756 )

time step continuity errors : sum local = 1.11119e-05, global = -3.23337e-07, cumulative = -0.00168137
DICPCG:  Solving for p_rgh, Initial residual = 1.6529e-06, Final residual = 9.54099e-08, No Iterations 41
Velocity BC on patch inlet
3D_2D Absorption BC on patch outlet
"Correction Levels" 1( 0.000464756 )

time step continuity errors : sum local = 1.09171e-06, global = 4.37687e-09, cumulative = -0.00168137
smoothSolver:  Solving for omega, Initial residual = 0.00069335, Final residual = 5.26602e-09, No Iterations 2
smoothSolver:  Solving for k, Initial residual = 0.000978281, Final residual = 6.34579e-10, No Iterations 2
ExecutionTime = 3.34 s  ClockTime = 4 s

Courant Number mean: 0.0385421 max: 0.442514
Interface Courant Number mean: 0.00402562 max: 0.411006
deltaT = 0.00355597
Time = 5.03244

PIMPLE: iteration 1
alpha.water BC on patch inlet
MULES: Solving for alpha.water
alpha.water BC on patch inlet
Phase-1 volume fraction = 0.681596  Min(alpha.water) = 0  Max(alpha.water) = 1.0001
alpha.water BC on patch inlet
MULES: Solving for alpha.water
alpha.water BC on patch inlet
Phase-1 volume fraction = 0.681617  Min(alpha.water) = 0  Max(alpha.water) = 1.0001
Velocity BC on patch inlet
3D_2D Absorption BC on patch outlet
"Correction Levels" 1( 0.00049363 )

DICPCG:  Solving for p_rgh, Initial residual = 0.000676167, Final residual = 1.9877e-05, No Iterations 3
time step continuity errors : sum local = 0.000227407, global = 1.31457e-06, cumulative = -0.00168005
DICPCG:  Solving for p_rgh, Initial residual = 2.02181e-05, Final residual = 9.34056e-07, No Iterations 17
Velocity BC on patch inlet
3D_2D Absorption BC on patch outlet
"Correction Levels" 1( 0.00049363 )

time step continuity errors : sum local = 1.06866e-05, global = -3.47231e-07, cumulative = -0.0016804
DICPCG:  Solving for p_rgh, Initial residual = 1.66952e-06, Final residual = 9.54706e-08, No Iterations 43
Velocity BC on patch inlet
3D_2D Absorption BC on patch outlet
"Correction Levels" 1( 0.00049363 )

time step continuity errors : sum local = 1.09223e-06, global = -1.16072e-07, cumulative = -0.00168052
smoothSolver:  Solving for omega, Initial residual = 0.000694516, Final residual = 5.23246e-09, No Iterations 2
smoothSolver:  Solving for k, Initial residual = 0.000975408, Final residual = 6.3066e-10, No Iterations 2
ExecutionTime = 3.72 s  ClockTime = 5 s

Courant Number mean: 0.0386083 max: 0.443063
Interface Courant Number mean: 0.00400895 max: 0.420594
deltaT = 0.00355597
Time = 5.03599

PIMPLE: iteration 1
alpha.water BC on patch inlet
MULES: Solving for alpha.water
alpha.water BC on patch inlet
Phase-1 volume fraction = 0.681637  Min(alpha.water) = 0  Max(alpha.water) = 1.0001
alpha.water BC on patch inlet
MULES: Solving for alpha.water
alpha.water BC on patch inlet
Phase-1 volume fraction = 0.681656  Min(alpha.water) = 0  Max(alpha.water) = 1.0001
Velocity BC on patch inlet
3D_2D Absorption BC on patch outlet
"Correction Levels" 1( 0.000522558 )

DICPCG:  Solving for p_rgh, Initial residual = 0.000684884, Final residual = 1.97285e-05, No Iterations 3
time step continuity errors : sum local = 0.000225593, global = -2.12867e-06, cumulative = -0.00168264
DICPCG:  Solving for p_rgh, Initial residual = 2.00408e-05, Final residual = 9.64881e-07, No Iterations 46
Velocity BC on patch inlet
3D_2D Absorption BC on patch outlet
"Correction Levels" 1( 0.000522558 )

time step continuity errors : sum local = 1.10339e-05, global = -2.73699e-07, cumulative = -0.00168292
DICPCG:  Solving for p_rgh, Initial residual = 1.68305e-06, Final residual = 9.86172e-08, No Iterations 31
Velocity BC on patch inlet
3D_2D Absorption BC on patch outlet
"Correction Levels" 1( 0.000522558 )

time step continuity errors : sum local = 1.13028e-06, global = 3.1213e-08, cumulative = -0.00168289
smoothSolver:  Solving for omega, Initial residual = 0.000694709, Final residual = 5.19553e-09, No Iterations 2
smoothSolver:  Solving for k, Initial residual = 0.000972758, Final residual = 6.42604e-10, No Iterations 2
ExecutionTime = 4.11 s  ClockTime = 5 s

Courant Number mean: 0.0386476 max: 0.441872
Interface Courant Number mean: 0.00399089 max: 0.418168
deltaT = 0.00355597
Time = 5.03955

PIMPLE: iteration 1
alpha.water BC on patch inlet
MULES: Solving for alpha.water
alpha.water BC on patch inlet
Phase-1 volume fraction = 0.681675  Min(alpha.water) = 0  Max(alpha.water) = 1.0001
alpha.water BC on patch inlet
MULES: Solving for alpha.water
alpha.water BC on patch inlet
Phase-1 volume fraction = 0.681694  Min(alpha.water) = 0  Max(alpha.water) = 1.0001
Velocity BC on patch inlet
3D_2D Absorption BC on patch outlet
"Correction Levels" 1( 0.000551536 )

DICPCG:  Solving for p_rgh, Initial residual = 0.000689846, Final residual = 1.94763e-05, No Iterations 3
time step continuity errors : sum local = 0.000223259, global = 2.1723e-07, cumulative = -0.00168267
DICPCG:  Solving for p_rgh, Initial residual = 1.97573e-05, Final residual = 8.76771e-07, No Iterations 16
Velocity BC on patch inlet
3D_2D Absorption BC on patch outlet
"Correction Levels" 1( 0.000551536 )

time step continuity errors : sum local = 1.00509e-05, global = -4.48575e-07, cumulative = -0.00168312
DICPCG:  Solving for p_rgh, Initial residual = 1.58783e-06, Final residual = 9.26191e-08, No Iterations 38
Velocity BC on patch inlet
3D_2D Absorption BC on patch outlet
"Correction Levels" 1( 0.000551536 )

time step continuity errors : sum local = 1.06177e-06, global = 1.54326e-08, cumulative = -0.0016831
smoothSolver:  Solving for omega, Initial residual = 0.000695008, Final residual = 5.14051e-09, No Iterations 2
smoothSolver:  Solving for k, Initial residual = 0.000970655, Final residual = 6.27283e-10, No Iterations 2
ExecutionTime = 4.45 s  ClockTime = 6 s

Courant Number mean: 0.0386821 max: 0.439115
Interface Courant Number mean: 0.004004 max: 0.409377
deltaT = 0.00355597
Time = 5.0431

PIMPLE: iteration 1
alpha.water BC on patch inlet
MULES: Solving for alpha.water
alpha.water BC on patch inlet
Phase-1 volume fraction = 0.681713  Min(alpha.water) = 0  Max(alpha.water) = 1.0001
alpha.water BC on patch inlet
MULES: Solving for alpha.water
alpha.water BC on patch inlet
Phase-1 volume fraction = 0.681731  Min(alpha.water) = 0  Max(alpha.water) = 1.0001
Velocity BC on patch inlet
3D_2D Absorption BC on patch outlet
"Correction Levels" 1( 0.000580562 )

DICPCG:  Solving for p_rgh, Initial residual = 0.000694968, Final residual = 1.95018e-05, No Iterations 3
time step continuity errors : sum local = 0.000223585, global = 8.41848e-08, cumulative = -0.00168302
DICPCG:  Solving for p_rgh, Initial residual = 1.97597e-05, Final residual = 9.31385e-07, No Iterations 16
Velocity BC on patch inlet
3D_2D Absorption BC on patch outlet
"Correction Levels" 1( 0.000580562 )

time step continuity errors : sum local = 1.06786e-05, global = -5.50671e-07, cumulative = -0.00168357
DICPCG:  Solving for p_rgh, Initial residual = 1.62522e-06, Final residual = 9.5773e-08, No Iterations 44
Velocity BC on patch inlet
3D_2D Absorption BC on patch outlet
"Correction Levels" 1( 0.000580562 )

time step continuity errors : sum local = 1.09805e-06, global = -1.05835e-07, cumulative = -0.00168368
smoothSolver:  Solving for omega, Initial residual = 0.000695566, Final residual = 5.05663e-09, No Iterations 2
smoothSolver:  Solving for k, Initial residual = 0.000968635, Final residual = 6.28173e-10, No Iterations 2
ExecutionTime = 4.77 s  ClockTime = 6 s

Courant Number mean: 0.038721 max: 0.446845
Interface Courant Number mean: 0.00401738 max: 0.399436
deltaT = 0.00355597
Time = 5.04666

PIMPLE: iteration 1
alpha.water BC on patch inlet
MULES: Solving for alpha.water
alpha.water BC on patch inlet
Phase-1 volume fraction = 0.68175  Min(alpha.water) = 0  Max(alpha.water) = 1.0001
alpha.water BC on patch inlet
MULES: Solving for alpha.water
alpha.water BC on patch inlet
Phase-1 volume fraction = 0.681768  Min(alpha.water) = 0  Max(alpha.water) = 1.0001
Velocity BC on patch inlet
3D_2D Absorption BC on patch outlet
"Correction Levels" 1( 0.000609638 )

DICPCG:  Solving for p_rgh, Initial residual = 0.000704303, Final residual = 1.96969e-05, No Iterations 3
time step continuity errors : sum local = 0.000225799, global = -1.42742e-07, cumulative = -0.00168382
DICPCG:  Solving for p_rgh, Initial residual = 2.00089e-05, Final residual = 9.14e-07, No Iterations 16
Velocity BC on patch inlet
3D_2D Absorption BC on patch outlet
"Correction Levels" 1( 0.000609638 )

time step continuity errors : sum local = 1.04783e-05, global = -5.95839e-07, cumulative = -0.00168441
DICPCG:  Solving for p_rgh, Initial residual = 1.61316e-06, Final residual = 8.77919e-08, No Iterations 44
Velocity BC on patch inlet
3D_2D Absorption BC on patch outlet
"Correction Levels" 1( 0.000609638 )

time step continuity errors : sum local = 1.00646e-06, global = -9.74987e-08, cumulative = -0.00168451
smoothSolver:  Solving for omega, Initial residual = 0.000696344, Final residual = 4.95289e-09, No Iterations 2
smoothSolver:  Solving for k, Initial residual = 0.000966072, Final residual = 6.19214e-10, No Iterations 2
ExecutionTime = 5.13 s  ClockTime = 7 s

Courant Number mean: 0.0387626 max: 0.453777
Interface Courant Number mean: 0.00400837 max: 0.426835
deltaT = 0.00355597
Time = 5.05022

PIMPLE: iteration 1
alpha.water BC on patch inlet
MULES: Solving for alpha.water
alpha.water BC on patch inlet
Phase-1 volume fraction = 0.681785  Min(alpha.water) = 0  Max(alpha.water) = 1.0001
alpha.water BC on patch inlet
MULES: Solving for alpha.water
alpha.water BC on patch inlet
Phase-1 volume fraction = 0.681803  Min(alpha.water) = 0  Max(alpha.water) = 1.0001
Velocity BC on patch inlet
3D_2D Absorption BC on patch outlet
"Correction Levels" 1( 0.000638764 )

DICPCG:  Solving for p_rgh, Initial residual = 0.000706372, Final residual = 1.98215e-05, No Iterations 3
time step continuity errors : sum local = 0.000227223, global = -4.32401e-08, cumulative = -0.00168455
DICPCG:  Solving for p_rgh, Initial residual = 2.0115e-05, Final residual = 9.81501e-07, No Iterations 15
Velocity BC on patch inlet
3D_2D Absorption BC on patch outlet
"Correction Levels" 1( 0.000638764 )

time step continuity errors : sum local = 1.12519e-05, global = -4.05273e-07, cumulative = -0.00168496
DICPCG:  Solving for p_rgh, Initial residual = 1.70084e-06, Final residual = 8.92212e-08, No Iterations 36
Velocity BC on patch inlet
3D_2D Absorption BC on patch outlet
"Correction Levels" 1( 0.000638764 )

time step continuity errors : sum local = 1.02284e-06, global = 9.03081e-08, cumulative = -0.00168487
smoothSolver:  Solving for omega, Initial residual = 0.000697094, Final residual = 4.78771e-09, No Iterations 2
smoothSolver:  Solving for k, Initial residual = 0.00096335, Final residual = 6.1656e-10, No Iterations 2
ExecutionTime = 5.44 s  ClockTime = 7 s

Courant Number mean: 0.0388034 max: 0.455312
Interface Courant Number mean: 0.0039823 max: 0.409021
deltaT = 0.00355597
Time = 5.05377

PIMPLE: iteration 1
alpha.water BC on patch inlet
MULES: Solving for alpha.water
alpha.water BC on patch inlet
Phase-1 volume fraction = 0.68182  Min(alpha.water) = 0  Max(alpha.water) = 1.0001
alpha.water BC on patch inlet
MULES: Solving for alpha.water
alpha.water BC on patch inlet
Phase-1 volume fraction = 0.681837  Min(alpha.water) = 0  Max(alpha.water) = 1.0001
Velocity BC on patch inlet
3D_2D Absorption BC on patch outlet
"Correction Levels" 1( 0.000667944 )

DICPCG:  Solving for p_rgh, Initial residual = 0.000710175, Final residual = 1.98769e-05, No Iterations 3
time step continuity errors : sum local = 0.000227876, global = 3.47767e-07, cumulative = -0.00168452
DICPCG:  Solving for p_rgh, Initial residual = 2.01322e-05, Final residual = 9.4861e-07, No Iterations 16
Velocity BC on patch inlet
3D_2D Absorption BC on patch outlet
"Correction Levels" 1( 0.000667944 )

time step continuity errors : sum local = 1.08755e-05, global = -5.06829e-07, cumulative = -0.00168503
DICPCG:  Solving for p_rgh, Initial residual = 1.66454e-06, Final residual = 9.58022e-08, No Iterations 44
Velocity BC on patch inlet
3D_2D Absorption BC on patch outlet
"Correction Levels" 1( 0.000667944 )

time step continuity errors : sum local = 1.09834e-06, global = -1.02521e-07, cumulative = -0.00168513
smoothSolver:  Solving for omega, Initial residual = 0.000697796, Final residual = 4.61322e-09, No Iterations 2
smoothSolver:  Solving for k, Initial residual = 0.000961052, Final residual = 5.96173e-10, No Iterations 2
ExecutionTime = 5.83 s  ClockTime = 8 s

Courant Number mean: 0.038842 max: 0.450712
Interface Courant Number mean: 0.00398882 max: 0.390785
deltaT = 0.00355597
Time = 5.05733

PIMPLE: iteration 1
alpha.water BC on patch inlet
MULES: Solving for alpha.water
alpha.water BC on patch inlet
Phase-1 volume fraction = 0.681853  Min(alpha.water) = 0  Max(alpha.water) = 1.0001
alpha.water BC on patch inlet
MULES: Solving for alpha.water
alpha.water BC on patch inlet
Phase-1 volume fraction = 0.68187  Min(alpha.water) = 0  Max(alpha.water) = 1.0001
Velocity BC on patch inlet
3D_2D Absorption BC on patch outlet
"Correction Levels" 1( 0.000697183 )

DICPCG:  Solving for p_rgh, Initial residual = 0.000715374, Final residual = 1.99783e-05, No Iterations 3
time step continuity errors : sum local = 0.00022901, global = -2.07711e-07, cumulative = -0.00168534
DICPCG:  Solving for p_rgh, Initial residual = 2.02458e-05, Final residual = 9.434e-07, No Iterations 16
Velocity BC on patch inlet
3D_2D Absorption BC on patch outlet
"Correction Levels" 1( 0.000697183 )

time step continuity errors : sum local = 1.08144e-05, global = -6.562e-07, cumulative = -0.001686
DICPCG:  Solving for p_rgh, Initial residual = 1.65963e-06, Final residual = 9.28013e-08, No Iterations 44
Velocity BC on patch inlet
3D_2D Absorption BC on patch outlet
"Correction Levels" 1( 0.000697183 )

time step continuity errors : sum local = 1.0638e-06, global = -1.0262e-07, cumulative = -0.0016861
smoothSolver:  Solving for omega, Initial residual = 0.000698676, Final residual = 4.45729e-09, No Iterations 2
smoothSolver:  Solving for k, Initial residual = 0.000958161, Final residual = 5.79568e-10, No Iterations 2
ExecutionTime = 6.13 s  ClockTime = 8 s

Courant Number mean: 0.0388786 max: 0.448631
Interface Courant Number mean: 0.00397424 max: 0.379958
deltaT = 0.00355597
Time = 5.06088

PIMPLE: iteration 1
alpha.water BC on patch inlet
MULES: Solving for alpha.water
alpha.water BC on patch inlet
Phase-1 volume fraction = 0.681886  Min(alpha.water) = 0  Max(alpha.water) = 1.0001
alpha.water BC on patch inlet
MULES: Solving for alpha.water
alpha.water BC on patch inlet
Phase-1 volume fraction = 0.681901  Min(alpha.water) = 0  Max(alpha.water) = 1.0001
Velocity BC on patch inlet
3D_2D Absorption BC on patch outlet
"Correction Levels" 1( 0.000726485 )

DICPCG:  Solving for p_rgh, Initial residual = 0.000727558, Final residual = 2.01525e-05, No Iterations 3
time step continuity errors : sum local = 0.00023099, global = -2.06736e-08, cumulative = -0.00168612
DICPCG:  Solving for p_rgh, Initial residual = 2.04102e-05, Final residual = 9.53551e-07, No Iterations 16
Velocity BC on patch inlet
3D_2D Absorption BC on patch outlet
"Correction Levels" 1( 0.000726485 )

time step continuity errors : sum local = 1.093e-05, global = -6.08649e-07, cumulative = -0.00168673
DICPCG:  Solving for p_rgh, Initial residual = 1.66627e-06, Final residual = 9.78968e-08, No Iterations 43
Velocity BC on patch inlet
3D_2D Absorption BC on patch outlet
"Correction Levels" 1( 0.000726485 )

time step continuity errors : sum local = 1.12213e-06, global = -8.03432e-08, cumulative = -0.00168681
smoothSolver:  Solving for omega, Initial residual = 0.000699253, Final residual = 4.31269e-09, No Iterations 2
smoothSolver:  Solving for k, Initial residual = 0.000955336, Final residual = 5.69573e-10, No Iterations 2
ExecutionTime = 6.44 s  ClockTime = 8 s

Courant Number mean: 0.0389145 max: 0.44426
Interface Courant Number mean: 0.00396291 max: 0.375722
deltaT = 0.00355597
Time = 5.06444

PIMPLE: iteration 1
alpha.water BC on patch inlet
MULES: Solving for alpha.water
alpha.water BC on patch inlet
Phase-1 volume fraction = 0.681916  Min(alpha.water) = 0  Max(alpha.water) = 1.0001
alpha.water BC on patch inlet
MULES: Solving for alpha.water
alpha.water BC on patch inlet
Phase-1 volume fraction = 0.681931  Min(alpha.water) = 0  Max(alpha.water) = 1.0001
Velocity BC on patch inlet
3D_2D Absorption BC on patch outlet
"Correction Levels" 1( 0.000755857 )

DICPCG:  Solving for p_rgh, Initial residual = 0.000735246, Final residual = 2.02585e-05, No Iterations 3
time step continuity errors : sum local = 0.000232176, global = 1.82605e-08, cumulative = -0.00168679
DICPCG:  Solving for p_rgh, Initial residual = 2.05054e-05, Final residual = 9.54081e-07, No Iterations 16
Velocity BC on patch inlet
3D_2D Absorption BC on patch outlet
"Correction Levels" 1( 0.000755857 )

time step continuity errors : sum local = 1.09346e-05, global = -5.99469e-07, cumulative = -0.00168739
DICPCG:  Solving for p_rgh, Initial residual = 1.67808e-06, Final residual = 9.64167e-08, No Iterations 43
Velocity BC on patch inlet
3D_2D Absorption BC on patch outlet
"Correction Levels" 1( 0.000755857 )

time step continuity errors : sum local = 1.10502e-06, global = -7.37873e-08, cumulative = -0.00168746
smoothSolver:  Solving for omega, Initial residual = 0.000699239, Final residual = 4.22181e-09, No Iterations 2
smoothSolver:  Solving for k, Initial residual = 0.000952249, Final residual = 5.59686e-10, No Iterations 2
ExecutionTime = 6.75 s  ClockTime = 9 s

Courant Number mean: 0.0389565 max: 0.451223
Interface Courant Number mean: 0.00395687 max: 0.41325
deltaT = 0.00355597
Time = 5.068

PIMPLE: iteration 1
alpha.water BC on patch inlet
MULES: Solving for alpha.water
alpha.water BC on patch inlet
Phase-1 volume fraction = 0.681946  Min(alpha.water) = 0  Max(alpha.water) = 1.0001
alpha.water BC on patch inlet
MULES: Solving for alpha.water
alpha.water BC on patch inlet
Phase-1 volume fraction = 0.68196  Min(alpha.water) = 0  Max(alpha.water) = 1.0001
Velocity BC on patch inlet
3D_2D Absorption BC on patch outlet
"Correction Levels" 1( 0.000785305 )

DICPCG:  Solving for p_rgh, Initial residual = 0.000741915, Final residual = 2.02736e-05, No Iterations 3
time step continuity errors : sum local = 0.000232328, global = 2.05595e-09, cumulative = -0.00168746
DICPCG:  Solving for p_rgh, Initial residual = 2.05483e-05, Final residual = 8.95681e-07, No Iterations 16
Velocity BC on patch inlet
3D_2D Absorption BC on patch outlet
"Correction Levels" 1( 0.000785305 )

time step continuity errors : sum local = 1.02643e-05, global = -5.68712e-07, cumulative = -0.00168803
DICPCG:  Solving for p_rgh, Initial residual = 1.61856e-06, Final residual = 9.49693e-08, No Iterations 43
Velocity BC on patch inlet
3D_2D Absorption BC on patch outlet
"Correction Levels" 1( 0.000785305 )

time step continuity errors : sum local = 1.08834e-06, global = -6.51962e-08, cumulative = -0.00168809
smoothSolver:  Solving for omega, Initial residual = 0.00069921, Final residual = 4.11843e-09, No Iterations 2
smoothSolver:  Solving for k, Initial residual = 0.000949115, Final residual = 5.49622e-10, No Iterations 2
ExecutionTime = 7.05 s  ClockTime = 9 s

Courant Number mean: 0.0389996 max: 0.450098
Interface Courant Number mean: 0.0039656 max: 0.399273
deltaT = 0.00355597
Time = 5.07155

PIMPLE: iteration 1
alpha.water BC on patch inlet
MULES: Solving for alpha.water
alpha.water BC on patch inlet
Phase-1 volume fraction = 0.681973  Min(alpha.water) = 0  Max(alpha.water) = 1.0001
alpha.water BC on patch inlet
MULES: Solving for alpha.water
alpha.water BC on patch inlet
Phase-1 volume fraction = 0.681987  Min(alpha.water) = 0  Max(alpha.water) = 1.0001
Velocity BC on patch inlet
3D_2D Absorption BC on patch outlet
"Correction Levels" 1( 0.000814835 )

DICPCG:  Solving for p_rgh, Initial residual = 0.000742925, Final residual = 2.0433e-05, No Iterations 3
time step continuity errors : sum local = 0.000234126, global = 8.23931e-09, cumulative = -0.00168809
DICPCG:  Solving for p_rgh, Initial residual = 2.06756e-05, Final residual = 9.3899e-07, No Iterations 16
Velocity BC on patch inlet
3D_2D Absorption BC on patch outlet
"Correction Levels" 1( 0.000814835 )

time step continuity errors : sum local = 1.07592e-05, global = -5.67671e-07, cumulative = -0.00168865
DICPCG:  Solving for p_rgh, Initial residual = 1.68229e-06, Final residual = 9.73325e-08, No Iterations 39
Velocity BC on patch inlet
3D_2D Absorption BC on patch outlet
"Correction Levels" 1( 0.000814835 )

time step continuity errors : sum local = 1.11527e-06, global = 4.17053e-08, cumulative = -0.00168861
smoothSolver:  Solving for omega, Initial residual = 0.000699142, Final residual = 4.00617e-09, No Iterations 2
smoothSolver:  Solving for k, Initial residual = 0.000945953, Final residual = 5.38491e-10, No Iterations 2
ExecutionTime = 7.35 s  ClockTime = 9 s

Courant Number mean: 0.039042 max: 0.462861
Interface Courant Number mean: 0.00395456 max: 0.387312
deltaT = 0.00355597
Time = 5.07511

PIMPLE: iteration 1
alpha.water BC on patch inlet
MULES: Solving for alpha.water
alpha.water BC on patch inlet
Phase-1 volume fraction = 0.682  Min(alpha.water) = 0  Max(alpha.water) = 1.0001
alpha.water BC on patch inlet
MULES: Solving for alpha.water
alpha.water BC on patch inlet
Phase-1 volume fraction = 0.682012  Min(alpha.water) = 0  Max(alpha.water) = 1.0001
Velocity BC on patch inlet
3D_2D Absorption BC on patch outlet
"Correction Levels" 1( 0.000844455 )

DICPCG:  Solving for p_rgh, Initial residual = 0.000742374, Final residual = 2.04774e-05, No Iterations 3
time step continuity errors : sum local = 0.000234614, global = 2.04015e-07, cumulative = -0.00168841
DICPCG:  Solving for p_rgh, Initial residual = 2.07737e-05, Final residual = 9.49705e-07, No Iterations 16
Velocity BC on patch inlet
3D_2D Absorption BC on patch outlet
"Correction Levels" 1( 0.000844455 )

time step continuity errors : sum local = 1.0881e-05, global = -5.47469e-07, cumulative = -0.00168896
DICPCG:  Solving for p_rgh, Initial residual = 1.69037e-06, Final residual = 9.05892e-08, No Iterations 43
Velocity BC on patch inlet
3D_2D Absorption BC on patch outlet
"Correction Levels" 1( 0.000844455 )

time step continuity errors : sum local = 1.0379e-06, global = -5.87319e-08, cumulative = -0.00168901
smoothSolver:  Solving for omega, Initial residual = 0.000699292, Final residual = 3.86715e-09, No Iterations 2
smoothSolver:  Solving for k, Initial residual = 0.000942597, Final residual = 5.22039e-10, No Iterations 2
ExecutionTime = 7.66 s  ClockTime = 10 s

Courant Number mean: 0.0390865 max: 0.472585
Interface Courant Number mean: 0.00394396 max: 0.375743
deltaT = 0.00355597
Time = 5.07866

PIMPLE: iteration 1
alpha.water BC on patch inlet
MULES: Solving for alpha.water
alpha.water BC on patch inlet
Phase-1 volume fraction = 0.682024  Min(alpha.water) = 0  Max(alpha.water) = 1.0001
alpha.water BC on patch inlet
MULES: Solving for alpha.water
alpha.water BC on patch inlet
Phase-1 volume fraction = 0.682036  Min(alpha.water) = 0  Max(alpha.water) = 1.0001
Velocity BC on patch inlet
3D_2D Absorption BC on patch outlet
"Correction Levels" 1( 0.000874172 )

DICPCG:  Solving for p_rgh, Initial residual = 0.000745426, Final residual = 2.05905e-05, No Iterations 3
time step continuity errors : sum local = 0.000235859, global = -9.25225e-08, cumulative = -0.00168911
DICPCG:  Solving for p_rgh, Initial residual = 2.08899e-05, Final residual = 9.39624e-07, No Iterations 16
Velocity BC on patch inlet
3D_2D Absorption BC on patch outlet
"Correction Levels" 1( 0.000874172 )

time step continuity errors : sum local = 1.07631e-05, global = -5.81905e-07, cumulative = -0.00168969
DICPCG:  Solving for p_rgh, Initial residual = 1.68808e-06, Final residual = 9.40597e-08, No Iterations 37
Velocity BC on patch inlet
3D_2D Absorption BC on patch outlet
"Correction Levels" 1( 0.000874172 )

time step continuity errors : sum local = 1.07744e-06, global = 5.54215e-08, cumulative = -0.00168963
smoothSolver:  Solving for omega, Initial residual = 0.000699448, Final residual = 3.73309e-09, No Iterations 2
smoothSolver:  Solving for k, Initial residual = 0.000939251, Final residual = 5.04082e-10, No Iterations 2
ExecutionTime = 7.96 s  ClockTime = 10 s

Courant Number mean: 0.0391306 max: 0.475933
Interface Courant Number mean: 0.00395527 max: 0.391378
deltaT = 0.00355597
Time = 5.08222

PIMPLE: iteration 1
alpha.water BC on patch inlet
MULES: Solving for alpha.water
alpha.water BC on patch inlet
Phase-1 volume fraction = 0.682047  Min(alpha.water) = 0  Max(alpha.water) = 1.0001
alpha.water BC on patch inlet
MULES: Solving for alpha.water
alpha.water BC on patch inlet
Phase-1 volume fraction = 0.682058  Min(alpha.water) = 0  Max(alpha.water) = 1.0001
Velocity BC on patch inlet
3D_2D Absorption BC on patch outlet
"Correction Levels" 1( 0.000903992 )

DICPCG:  Solving for p_rgh, Initial residual = 0.00074366, Final residual = 2.08035e-05, No Iterations 3
time step continuity errors : sum local = 0.000238278, global = 2.28703e-07, cumulative = -0.0016894
DICPCG:  Solving for p_rgh, Initial residual = 2.10912e-05, Final residual = 9.31708e-07, No Iterations 16
Velocity BC on patch inlet
3D_2D Absorption BC on patch outlet
"Correction Levels" 1( 0.000903992 )

time step continuity errors : sum local = 1.06715e-05, global = -4.90551e-07, cumulative = -0.0016899
DICPCG:  Solving for p_rgh, Initial residual = 1.6957e-06, Final residual = 9.783e-08, No Iterations 37
Velocity BC on patch inlet
3D_2D Absorption BC on patch outlet
"Correction Levels" 1( 0.000903992 )

time step continuity errors : sum local = 1.12053e-06, global = 6.70941e-08, cumulative = -0.00168983
smoothSolver:  Solving for omega, Initial residual = 0.000699602, Final residual = 3.62829e-09, No Iterations 2
smoothSolver:  Solving for k, Initial residual = 0.000935895, Final residual = 4.944e-10, No Iterations 2
ExecutionTime = 8.26 s  ClockTime = 10 s

Courant Number mean: 0.039174 max: 0.498014
Interface Courant Number mean: 0.00396297 max: 0.397691
deltaT = 0.00296331
Time = 5.08518

PIMPLE: iteration 1
alpha.water BC on patch inlet
MULES: Solving for alpha.water
alpha.water BC on patch inlet
Phase-1 volume fraction = 0.682067  Min(alpha.water) = 0  Max(alpha.water) = 1.0001
alpha.water BC on patch inlet
MULES: Solving for alpha.water
alpha.water BC on patch inlet
Phase-1 volume fraction = 0.682075  Min(alpha.water) = 0  Max(alpha.water) = 1.0001
Velocity BC on patch inlet
3D_2D Absorption BC on patch outlet
"Correction Levels" 1( 0.000928932 )

DICPCG:  Solving for p_rgh, Initial residual = 0.000631576, Final residual = 1.76682e-05, No Iterations 3
time step continuity errors : sum local = 0.000141136, global = 9.131e-08, cumulative = -0.00168974
DICPCG:  Solving for p_rgh, Initial residual = 1.78653e-05, Final residual = 7.81097e-07, No Iterations 16
Velocity BC on patch inlet
3D_2D Absorption BC on patch outlet
"Correction Levels" 1( 0.000928932 )

time step continuity errors : sum local = 6.23948e-06, global = -2.85324e-07, cumulative = -0.00169002
DICPCG:  Solving for p_rgh, Initial residual = 1.30266e-06, Final residual = 9.49576e-08, No Iterations 35
Velocity BC on patch inlet
3D_2D Absorption BC on patch outlet
"Correction Levels" 1( 0.000928932 )

time step continuity errors : sum local = 7.58551e-07, global = 2.78659e-08, cumulative = -0.00168999
smoothSolver:  Solving for omega, Initial residual = 0.000582823, Final residual = 1.56041e-09, No Iterations 2
smoothSolver:  Solving for k, Initial residual = 0.000777379, Final residual = 2.17961e-10, No Iterations 2
ExecutionTime = 8.59 s  ClockTime = 11 s

Courant Number mean: 0.032674 max: 0.424825
Interface Courant Number mean: 0.00328607 max: 0.333348
deltaT = 0.00296331
Time = 5.08815

PIMPLE: iteration 1
alpha.water BC on patch inlet
MULES: Solving for alpha.water
alpha.water BC on patch inlet
Phase-1 volume fraction = 0.682083  Min(alpha.water) = 0  Max(alpha.water) = 1.0001
alpha.water BC on patch inlet
MULES: Solving for alpha.water
alpha.water BC on patch inlet
Phase-1 volume fraction = 0.682091  Min(alpha.water) = 0  Max(alpha.water) = 1.0001
Velocity BC on patch inlet
3D_2D Absorption BC on patch outlet
"Correction Levels" 1( 0.000953942 )

DICPCG:  Solving for p_rgh, Initial residual = 0.000634086, Final residual = 1.76093e-05, No Iterations 3
time step continuity errors : sum local = 0.000140658, global = 5.57141e-08, cumulative = -0.00168994
DICPCG:  Solving for p_rgh, Initial residual = 1.78282e-05, Final residual = 7.81428e-07, No Iterations 16
Velocity BC on patch inlet
3D_2D Absorption BC on patch outlet
"Correction Levels" 1( 0.000953942 )

time step continuity errors : sum local = 6.24179e-06, global = -3.02938e-07, cumulative = -0.00169024
DICPCG:  Solving for p_rgh, Initial residual = 1.32607e-06, Final residual = 9.60848e-08, No Iterations 34
Velocity BC on patch inlet
3D_2D Absorption BC on patch outlet
"Correction Levels" 1( 0.000953942 )

time step continuity errors : sum local = 7.67503e-07, global = 4.30249e-08, cumulative = -0.0016902
smoothSolver:  Solving for omega, Initial residual = 0.000582777, Final residual = 1.53773e-09, No Iterations 2
smoothSolver:  Solving for k, Initial residual = 0.000775007, Final residual = 2.14141e-10, No Iterations 2
ExecutionTime = 8.95 s  ClockTime = 11 s

Courant Number mean: 0.0327012 max: 0.441811
Interface Courant Number mean: 0.00328771 max: 0.332796
deltaT = 0.00296331
Time = 5.09111

PIMPLE: iteration 1
alpha.water BC on patch inlet
MULES: Solving for alpha.water
alpha.water BC on patch inlet
Phase-1 volume fraction = 0.682098  Min(alpha.water) = 0  Max(alpha.water) = 1.0001
alpha.water BC on patch inlet
MULES: Solving for alpha.water
alpha.water BC on patch inlet
Phase-1 volume fraction = 0.682105  Min(alpha.water) = 0  Max(alpha.water) = 1.0001
Velocity BC on patch inlet
3D_2D Absorption BC on patch outlet
"Correction Levels" 1( 0.00097903 )

DICPCG:  Solving for p_rgh, Initial residual = 0.00062759, Final residual = 1.79006e-05, No Iterations 3
time step continuity errors : sum local = 0.00014297, global = 6.79552e-07, cumulative = -0.00168952
DICPCG:  Solving for p_rgh, Initial residual = 1.82233e-05, Final residual = 8.39853e-07, No Iterations 17
Velocity BC on patch inlet
3D_2D Absorption BC on patch outlet
"Correction Levels" 1( 0.00097903 )

time step continuity errors : sum local = 6.70777e-06, global = -1.90394e-07, cumulative = -0.00168971
DICPCG:  Solving for p_rgh, Initial residual = 1.4004e-06, Final residual = 9.99569e-08, No Iterations 40
Velocity BC on patch inlet
3D_2D Absorption BC on patch outlet
"Correction Levels" 1( 0.00097903 )

time step continuity errors : sum local = 7.98318e-07, global = -3.49124e-08, cumulative = -0.00168974
smoothSolver:  Solving for omega, Initial residual = 0.000583269, Final residual = 1.53384e-09, No Iterations 2
smoothSolver:  Solving for k, Initial residual = 0.000772738, Final residual = 2.08542e-10, No Iterations 2
ExecutionTime = 9.3 s  ClockTime = 11 s

Courant Number mean: 0.032739 max: 0.454988
Interface Courant Number mean: 0.00330795 max: 0.421722
deltaT = 0.00296331
Time = 5.09407

PIMPLE: iteration 1
alpha.water BC on patch inlet
MULES: Solving for alpha.water
alpha.water BC on patch inlet
Phase-1 volume fraction = 0.682112  Min(alpha.water) = 0  Max(alpha.water) = 1.0001
alpha.water BC on patch inlet
MULES: Solving for alpha.water
alpha.water BC on patch inlet
Phase-1 volume fraction = 0.682118  Min(alpha.water) = 0  Max(alpha.water) = 1.0001
Velocity BC on patch inlet
3D_2D Absorption BC on patch outlet
"Correction Levels" 1( 0.0010042 )

DICPCG:  Solving for p_rgh, Initial residual = 0.000622347, Final residual = 1.77796e-05, No Iterations 3
time step continuity errors : sum local = 0.000141945, global = -9.15047e-07, cumulative = -0.00169066
DICPCG:  Solving for p_rgh, Initial residual = 1.80792e-05, Final residual = 7.47969e-07, No Iterations 39
Velocity BC on patch inlet
3D_2D Absorption BC on patch outlet
"Correction Levels" 1( 0.0010042 )

time step continuity errors : sum local = 5.97156e-06, global = 1.76173e-07, cumulative = -0.00169048
DICPCG:  Solving for p_rgh, Initial residual = 1.35144e-06, Final residual = 9.86797e-08, No Iterations 34
Velocity BC on patch inlet
3D_2D Absorption BC on patch outlet
"Correction Levels" 1( 0.0010042 )

time step continuity errors : sum local = 7.88676e-07, global = 3.61453e-08, cumulative = -0.00169045
smoothSolver:  Solving for omega, Initial residual = 0.000583449, Final residual = 1.55118e-09, No Iterations 2
smoothSolver:  Solving for k, Initial residual = 0.000770816, Final residual = 2.06478e-10, No Iterations 2
ExecutionTime = 9.63 s  ClockTime = 12 s

Courant Number mean: 0.0327711 max: 0.462895
Interface Courant Number mean: 0.00329239 max: 0.410051
deltaT = 0.00296331
Time = 5.09704

PIMPLE: iteration 1
alpha.water BC on patch inlet
MULES: Solving for alpha.water
alpha.water BC on patch inlet
Phase-1 volume fraction = 0.682124  Min(alpha.water) = 0  Max(alpha.water) = 1.0001
alpha.water BC on patch inlet
MULES: Solving for alpha.water
alpha.water BC on patch inlet
Phase-1 volume fraction = 0.682129  Min(alpha.water) = 0  Max(alpha.water) = 1.0001
Velocity BC on patch inlet
3D_2D Absorption BC on patch outlet
"Correction Levels" 1( 0.00102945 )

DICPCG:  Solving for p_rgh, Initial residual = 0.000621733, Final residual = 1.79019e-05, No Iterations 3
time step continuity errors : sum local = 0.000143092, global = 1.10413e-07, cumulative = -0.00169034
DICPCG:  Solving for p_rgh, Initial residual = 1.81399e-05, Final residual = 8.83724e-07, No Iterations 15
Velocity BC on patch inlet
3D_2D Absorption BC on patch outlet
"Correction Levels" 1( 0.00102945 )

time step continuity errors : sum local = 7.06369e-06, global = -1.73369e-07, cumulative = -0.00169051
DICPCG:  Solving for p_rgh, Initial residual = 1.40752e-06, Final residual = 9.5605e-08, No Iterations 29
Velocity BC on patch inlet
3D_2D Absorption BC on patch outlet
"Correction Levels" 1( 0.00102945 )

time step continuity errors : sum local = 7.64196e-07, global = 1.13644e-07, cumulative = -0.0016904
smoothSolver:  Solving for omega, Initial residual = 0.000583416, Final residual = 1.54942e-09, No Iterations 2
smoothSolver:  Solving for k, Initial residual = 0.000768487, Final residual = 2.03643e-10, No Iterations 2
ExecutionTime = 9.92 s  ClockTime = 12 s

Courant Number mean: 0.0328007 max: 0.465116
Interface Courant Number mean: 0.00326744 max: 0.394622
deltaT = 0.00296331
Time = 5.1

PIMPLE: iteration 1
alpha.water BC on patch inlet
MULES: Solving for alpha.water
alpha.water BC on patch inlet
Phase-1 volume fraction = 0.682135  Min(alpha.water) = 0  Max(alpha.water) = 1.0001
alpha.water BC on patch inlet
MULES: Solving for alpha.water
alpha.water BC on patch inlet
Phase-1 volume fraction = 0.68214  Min(alpha.water) = 0  Max(alpha.water) = 1.0001
Velocity BC on patch inlet
3D_2D Absorption BC on patch outlet
"Correction Levels" 1( 0.0010548 )

DICPCG:  Solving for p_rgh, Initial residual = 0.000623597, Final residual = 1.7952e-05, No Iterations 3
time step continuity errors : sum local = 0.000143493, global = 2.17502e-07, cumulative = -0.00169018
DICPCG:  Solving for p_rgh, Initial residual = 1.81531e-05, Final residual = 8.30625e-07, No Iterations 16
Velocity BC on patch inlet
3D_2D Absorption BC on patch outlet
"Correction Levels" 1( 0.0010548 )

time step continuity errors : sum local = 6.63926e-06, global = -2.67284e-07, cumulative = -0.00169045
DICPCG:  Solving for p_rgh, Initial residual = 1.35928e-06, Final residual = 9.65983e-08, No Iterations 38
Velocity BC on patch inlet
3D_2D Absorption BC on patch outlet
"Correction Levels" 1( 0.0010548 )

time step continuity errors : sum local = 7.72115e-07, global = 3.8566e-08, cumulative = -0.00169041
smoothSolver:  Solving for omega, Initial residual = 0.000583069, Final residual = 1.57727e-09, No Iterations 2
smoothSolver:  Solving for k, Initial residual = 0.000766492, Final residual = 2.06973e-10, No Iterations 2
ExecutionTime = 10.64 s  ClockTime = 13 s

Courant Number mean: 0.03282 max: 0.459738
Interface Courant Number mean: 0.00328758 max: 0.376202
deltaT = 0.00294118
Time = 5.10294

PIMPLE: iteration 1
alpha.water BC on patch inlet
MULES: Solving for alpha.water
alpha.water BC on patch inlet
Phase-1 volume fraction = 0.682144  Min(alpha.water) = 0  Max(alpha.water) = 1.0001
alpha.water BC on patch inlet
MULES: Solving for alpha.water
alpha.water BC on patch inlet
Phase-1 volume fraction = 0.682149  Min(alpha.water) = 0  Max(alpha.water) = 1.0001
Velocity BC on patch inlet
3D_2D Absorption BC on patch outlet
"Correction Levels" 1( 0.00108004 )

DICPCG:  Solving for p_rgh, Initial residual = 0.000617341, Final residual = 1.77815e-05, No Iterations 3
time step continuity errors : sum local = 0.000140019, global = 1.0405e-09, cumulative = -0.00169041
DICPCG:  Solving for p_rgh, Initial residual = 1.80284e-05, Final residual = 8.77066e-07, No Iterations 15
Velocity BC on patch inlet
3D_2D Absorption BC on patch outlet
"Correction Levels" 1( 0.00108004 )

time step continuity errors : sum local = 6.90637e-06, global = -2.95782e-07, cumulative = -0.0016907
DICPCG:  Solving for p_rgh, Initial residual = 1.37253e-06, Final residual = 9.92423e-08, No Iterations 36
Velocity BC on patch inlet
3D_2D Absorption BC on patch outlet
"Correction Levels" 1( 0.00108004 )

time step continuity errors : sum local = 7.81463e-07, global = 8.39237e-08, cumulative = -0.00169062
smoothSolver:  Solving for omega, Initial residual = 0.000578643, Final residual = 1.57776e-09, No Iterations 2
smoothSolver:  Solving for k, Initial residual = 0.000758404, Final residual = 1.95703e-10, No Iterations 2
ExecutionTime = 10.99 s  ClockTime = 14 s

Courant Number mean: 0.0325968 max: 0.444121
Interface Courant Number mean: 0.00325895 max: 0.353488
deltaT = 0.00294118
Time = 5.10588

PIMPLE: iteration 1
alpha.water BC on patch inlet
MULES: Solving for alpha.water
alpha.water BC on patch inlet
Phase-1 volume fraction = 0.682152  Min(alpha.water) = 0  Max(alpha.water) = 1.0001
alpha.water BC on patch inlet
MULES: Solving for alpha.water
alpha.water BC on patch inlet
Phase-1 volume fraction = 0.682156  Min(alpha.water) = 0  Max(alpha.water) = 1.0001
Velocity BC on patch inlet
3D_2D Absorption BC on patch outlet
"Correction Levels" 1( 0.00110538 )

DICPCG:  Solving for p_rgh, Initial residual = 0.000616629, Final residual = 1.77908e-05, No Iterations 3
time step continuity errors : sum local = 0.000140067, global = 1.549e-07, cumulative = -0.00169046
DICPCG:  Solving for p_rgh, Initial residual = 1.80426e-05, Final residual = 8.54135e-07, No Iterations 15
Velocity BC on patch inlet
3D_2D Absorption BC on patch outlet
"Correction Levels" 1( 0.00110538 )

time step continuity errors : sum local = 6.72463e-06, global = -1.92598e-07, cumulative = -0.00169066
DICPCG:  Solving for p_rgh, Initial residual = 1.35473e-06, Final residual = 9.59336e-08, No Iterations 37
Velocity BC on patch inlet
3D_2D Absorption BC on patch outlet
"Correction Levels" 1( 0.00110538 )

time step continuity errors : sum local = 7.55278e-07, global = 6.90768e-08, cumulative = -0.00169059
smoothSolver:  Solving for omega, Initial residual = 0.00057878, Final residual = 1.62509e-09, No Iterations 2
smoothSolver:  Solving for k, Initial residual = 0.000756283, Final residual = 1.99914e-10, No Iterations 2
ExecutionTime = 11.27 s  ClockTime = 14 s

Courant Number mean: 0.0326189 max: 0.427792
Interface Courant Number mean: 0.00326031 max: 0.427792
deltaT = 0.00313725
Time = 5.10902

PIMPLE: iteration 1
alpha.water BC on patch inlet
MULES: Solving for alpha.water
alpha.water BC on patch inlet
Phase-1 volume fraction = 0.68216  Min(alpha.water) = 0  Max(alpha.water) = 1.0001
alpha.water BC on patch inlet
MULES: Solving for alpha.water
alpha.water BC on patch inlet
Phase-1 volume fraction = 0.682163  Min(alpha.water) = 0  Max(alpha.water) = 1.0001
Velocity BC on patch inlet
3D_2D Absorption BC on patch outlet
"Correction Levels" 1( 0.00113251 )

DICPCG:  Solving for p_rgh, Initial residual = 0.000660325, Final residual = 1.9041e-05, No Iterations 3
time step continuity errors : sum local = 0.000170278, global = 9.43977e-08, cumulative = -0.00169049
DICPCG:  Solving for p_rgh, Initial residual = 1.93042e-05, Final residual = 8.93416e-07, No Iterations 15
Velocity BC on patch inlet
3D_2D Absorption BC on patch outlet
"Correction Levels" 1( 0.00113251 )

time step continuity errors : sum local = 7.98954e-06, global = -2.84569e-07, cumulative = -0.00169078
DICPCG:  Solving for p_rgh, Initial residual = 1.4852e-06, Final residual = 9.64428e-08, No Iterations 35
Velocity BC on patch inlet
3D_2D Absorption BC on patch outlet
"Correction Levels" 1( 0.00113251 )

time step continuity errors : sum local = 8.62449e-07, global = 1.02752e-07, cumulative = -0.00169067
smoothSolver:  Solving for omega, Initial residual = 0.000617477, Final residual = 2.23123e-09, No Iterations 2
smoothSolver:  Solving for k, Initial residual = 0.000804301, Final residual = 2.73871e-10, No Iterations 2
ExecutionTime = 11.61 s  ClockTime = 14 s

Courant Number mean: 0.0348182 max: 0.437842
Interface Courant Number mean: 0.00347104 max: 0.437842
deltaT = 0.0032493
Time = 5.11227

PIMPLE: iteration 1
alpha.water BC on patch inlet
MULES: Solving for alpha.water
alpha.water BC on patch inlet
Phase-1 volume fraction = 0.682166  Min(alpha.water) = 0  Max(alpha.water) = 1.0001
alpha.water BC on patch inlet
MULES: Solving for alpha.water
alpha.water BC on patch inlet
Phase-1 volume fraction = 0.682169  Min(alpha.water) = 0  Max(alpha.water) = 1.0001
Velocity BC on patch inlet
3D_2D Absorption BC on patch outlet
"Correction Levels" 1( 0.00116072 )

DICPCG:  Solving for p_rgh, Initial residual = 0.000682557, Final residual = 1.97973e-05, No Iterations 3
time step continuity errors : sum local = 0.000189713, global = 1.71219e-07, cumulative = -0.0016905
DICPCG:  Solving for p_rgh, Initial residual = 2.00377e-05, Final residual = 9.52174e-07, No Iterations 15
Velocity BC on patch inlet
3D_2D Absorption BC on patch outlet
"Correction Levels" 1( 0.00116072 )

time step continuity errors : sum local = 9.12443e-06, global = -2.76793e-07, cumulative = -0.00169078
DICPCG:  Solving for p_rgh, Initial residual = 1.60011e-06, Final residual = 9.39365e-08, No Iterations 36
Velocity BC on patch inlet
3D_2D Absorption BC on patch outlet
"Correction Levels" 1( 0.00116072 )

time step continuity errors : sum local = 9.00163e-07, global = 1.0439e-07, cumulative = -0.00169068
smoothSolver:  Solving for omega, Initial residual = 0.000639265, Final residual = 2.66557e-09, No Iterations 2
smoothSolver:  Solving for k, Initial residual = 0.000830242, Final residual = 3.11692e-10, No Iterations 2
ExecutionTime = 11.92 s  ClockTime = 15 s

Courant Number mean: 0.0360915 max: 0.447407
Interface Courant Number mean: 0.00363745 max: 0.433543
deltaT = 0.0032493
Time = 5.11552

PIMPLE: iteration 1
alpha.water BC on patch inlet
MULES: Solving for alpha.water
alpha.water BC on patch inlet
Phase-1 volume fraction = 0.682171  Min(alpha.water) = 0  Max(alpha.water) = 1.0001
alpha.water BC on patch inlet
MULES: Solving for alpha.water
alpha.water BC on patch inlet
Phase-1 volume fraction = 0.682174  Min(alpha.water) = 0  Max(alpha.water) = 1.0001
Velocity BC on patch inlet
3D_2D Absorption BC on patch outlet
"Correction Levels" 1( 0.00118906 )

DICPCG:  Solving for p_rgh, Initial residual = 0.000675462, Final residual = 1.98919e-05, No Iterations 3
time step continuity errors : sum local = 0.000190586, global = 1.4232e-07, cumulative = -0.00169053
DICPCG:  Solving for p_rgh, Initial residual = 2.01652e-05, Final residual = 1.00669e-06, No Iterations 15
Velocity BC on patch inlet
3D_2D Absorption BC on patch outlet
"Correction Levels" 1( 0.00118906 )

time step continuity errors : sum local = 9.64497e-06, global = -2.87363e-07, cumulative = -0.00169082
DICPCG:  Solving for p_rgh, Initial residual = 1.66244e-06, Final residual = 9.72423e-08, No Iterations 42
Velocity BC on patch inlet
3D_2D Absorption BC on patch outlet
"Correction Levels" 1( 0.00118906 )

time step continuity errors : sum local = 9.31663e-07, global = -2.64464e-08, cumulative = -0.00169085
smoothSolver:  Solving for omega, Initial residual = 0.000638799, Final residual = 2.72623e-09, No Iterations 2
smoothSolver:  Solving for k, Initial residual = 0.00082785, Final residual = 3.31445e-10, No Iterations 2
ExecutionTime = 12.21 s  ClockTime = 15 s

Courant Number mean: 0.0361241 max: 0.451131
Interface Courant Number mean: 0.00361554 max: 0.414155
deltaT = 0.0032493
Time = 5.11877

PIMPLE: iteration 1
alpha.water BC on patch inlet
MULES: Solving for alpha.water
alpha.water BC on patch inlet
Phase-1 volume fraction = 0.682175  Min(alpha.water) = 0  Max(alpha.water) = 1.0001
alpha.water BC on patch inlet
MULES: Solving for alpha.water
alpha.water BC on patch inlet
Phase-1 volume fraction = 0.682177  Min(alpha.water) = 0  Max(alpha.water) = 1.0001
Velocity BC on patch inlet
3D_2D Absorption BC on patch outlet
"Correction Levels" 1( 0.00121752 )

DICPCG:  Solving for p_rgh, Initial residual = 0.000678701, Final residual = 1.99223e-05, No Iterations 3
time step continuity errors : sum local = 0.000190836, global = -1.07822e-07, cumulative = -0.00169095
DICPCG:  Solving for p_rgh, Initial residual = 2.02123e-05, Final residual = 9.9472e-07, No Iterations 15
Velocity BC on patch inlet
3D_2D Absorption BC on patch outlet
"Correction Levels" 1( 0.00121752 )

time step continuity errors : sum local = 9.5284e-06, global = -3.53427e-07, cumulative = -0.00169131
DICPCG:  Solving for p_rgh, Initial residual = 1.64569e-06, Final residual = 9.59045e-08, No Iterations 40
Velocity BC on patch inlet
3D_2D Absorption BC on patch outlet
"Correction Levels" 1( 0.00121752 )

time step continuity errors : sum local = 9.18657e-07, global = 4.27977e-08, cumulative = -0.00169127
smoothSolver:  Solving for omega, Initial residual = 0.000638384, Final residual = 2.82643e-09, No Iterations 2
smoothSolver:  Solving for k, Initial residual = 0.000824911, Final residual = 3.29616e-10, No Iterations 2
ExecutionTime = 12.52 s  ClockTime = 15 s

Courant Number mean: 0.0361578 max: 0.452976
Interface Courant Number mean: 0.00364721 max: 0.395363
deltaT = 0.0032493
Time = 5.12202

PIMPLE: iteration 1
alpha.water BC on patch inlet
MULES: Solving for alpha.water
alpha.water BC on patch inlet
Phase-1 volume fraction = 0.682178  Min(alpha.water) = 0  Max(alpha.water) = 1.0001
alpha.water BC on patch inlet
MULES: Solving for alpha.water
alpha.water BC on patch inlet
Phase-1 volume fraction = 0.682179  Min(alpha.water) = 0  Max(alpha.water) = 1.0001
Velocity BC on patch inlet
3D_2D Absorption BC on patch outlet
"Correction Levels" 1( 0.0012461 )

DICPCG:  Solving for p_rgh, Initial residual = 0.000689744, Final residual = 1.99213e-05, No Iterations 3
time step continuity errors : sum local = 0.000190802, global = 1.40422e-07, cumulative = -0.00169112
DICPCG:  Solving for p_rgh, Initial residual = 2.02459e-05, Final residual = 9.92096e-07, No Iterations 15
Velocity BC on patch inlet
3D_2D Absorption BC on patch outlet
"Correction Levels" 1( 0.0012461 )

time step continuity errors : sum local = 9.50202e-06, global = -2.77478e-07, cumulative = -0.0016914
DICPCG:  Solving for p_rgh, Initial residual = 1.64847e-06, Final residual = 9.87169e-08, No Iterations 40
Velocity BC on patch inlet
3D_2D Absorption BC on patch outlet
"Correction Levels" 1( 0.0012461 )

time step continuity errors : sum local = 9.45468e-07, global = 4.6426e-08, cumulative = -0.00169136
smoothSolver:  Solving for omega, Initial residual = 0.000638049, Final residual = 2.89429e-09, No Iterations 2
smoothSolver:  Solving for k, Initial residual = 0.000822095, Final residual = 3.34775e-10, No Iterations 2
ExecutionTime = 12.87 s  ClockTime = 16 s

Courant Number mean: 0.0361926 max: 0.451506
Interface Courant Number mean: 0.00363903 max: 0.377891
deltaT = 0.0032493
Time = 5.12527

PIMPLE: iteration 1
alpha.water BC on patch inlet
MULES: Solving for alpha.water
alpha.water BC on patch inlet
Phase-1 volume fraction = 0.682179  Min(alpha.water) = 0  Max(alpha.water) = 1.0001
alpha.water BC on patch inlet
MULES: Solving for alpha.water
alpha.water BC on patch inlet
Phase-1 volume fraction = 0.68218  Min(alpha.water) = 0  Max(alpha.water) = 1.0001
Velocity BC on patch inlet
3D_2D Absorption BC on patch outlet
"Correction Levels" 1( 0.0012748 )

DICPCG:  Solving for p_rgh, Initial residual = 0.000694587, Final residual = 2.00193e-05, No Iterations 3
time step continuity errors : sum local = 0.0001917, global = 8.17633e-08, cumulative = -0.00169127
DICPCG:  Solving for p_rgh, Initial residual = 2.03484e-05, Final residual = 9.8045e-07, No Iterations 15
Velocity BC on patch inlet
3D_2D Absorption BC on patch outlet
"Correction Levels" 1( 0.0012748 )

time step continuity errors : sum local = 9.38855e-06, global = -2.80171e-07, cumulative = -0.00169155
DICPCG:  Solving for p_rgh, Initial residual = 1.62303e-06, Final residual = 9.70565e-08, No Iterations 40
Velocity BC on patch inlet
3D_2D Absorption BC on patch outlet
"Correction Levels" 1( 0.0012748 )

time step continuity errors : sum local = 9.29372e-07, global = 4.80815e-08, cumulative = -0.00169151
smoothSolver:  Solving for omega, Initial residual = 0.000637775, Final residual = 2.88718e-09, No Iterations 2
smoothSolver:  Solving for k, Initial residual = 0.000819144, Final residual = 3.35557e-10, No Iterations 2
ExecutionTime = 13.22 s  ClockTime = 16 s

Courant Number mean: 0.0362271 max: 0.457336
Interface Courant Number mean: 0.0036363 max: 0.361818
deltaT = 0.0032493
Time = 5.12852

PIMPLE: iteration 1
alpha.water BC on patch inlet
MULES: Solving for alpha.water
alpha.water BC on patch inlet
Phase-1 volume fraction = 0.682179  Min(alpha.water) = 0  Max(alpha.water) = 1.0001
alpha.water BC on patch inlet
MULES: Solving for alpha.water
alpha.water BC on patch inlet
Phase-1 volume fraction = 0.682179  Min(alpha.water) = 0  Max(alpha.water) = 1.0001
Velocity BC on patch inlet
3D_2D Absorption BC on patch outlet
"Correction Levels" 1( 0.00130362 )

DICPCG:  Solving for p_rgh, Initial residual = 0.000705868, Final residual = 2.01022e-05, No Iterations 3
time step continuity errors : sum local = 0.000192467, global = 8.13983e-08, cumulative = -0.00169142
DICPCG:  Solving for p_rgh, Initial residual = 2.04317e-05, Final residual = 9.82486e-07, No Iterations 15
Velocity BC on patch inlet
3D_2D Absorption BC on patch outlet
"Correction Levels" 1( 0.00130362 )

time step continuity errors : sum local = 9.40677e-06, global = -2.85667e-07, cumulative = -0.00169171
DICPCG:  Solving for p_rgh, Initial residual = 1.61865e-06, Final residual = 9.73516e-08, No Iterations 36
Velocity BC on patch inlet
3D_2D Absorption BC on patch outlet
"Correction Levels" 1( 0.00130362 )

time step continuity errors : sum local = 9.32077e-07, global = 1.08482e-07, cumulative = -0.0016916
smoothSolver:  Solving for omega, Initial residual = 0.000637621, Final residual = 2.89608e-09, No Iterations 2
smoothSolver:  Solving for k, Initial residual = 0.000815928, Final residual = 3.34448e-10, No Iterations 2
ExecutionTime = 13.57 s  ClockTime = 16 s

Courant Number mean: 0.0362645 max: 0.460915
Interface Courant Number mean: 0.00366331 max: 0.394034
deltaT = 0.00310803
Time = 5.13162

PIMPLE: iteration 1
alpha.water BC on patch inlet
MULES: Solving for alpha.water
alpha.water BC on patch inlet
Phase-1 volume fraction = 0.682178  Min(alpha.water) = 0  Max(alpha.water) = 1.0001
alpha.water BC on patch inlet
MULES: Solving for alpha.water
alpha.water BC on patch inlet
Phase-1 volume fraction = 0.682178  Min(alpha.water) = 0  Max(alpha.water) = 1.0001
Velocity BC on patch inlet
3D_2D Absorption BC on patch outlet
"Correction Levels" 1( 0.00133129 )

DICPCG:  Solving for p_rgh, Initial residual = 0.000687603, Final residual = 1.93152e-05, No Iterations 3
time step continuity errors : sum local = 0.000169365, global = 2.07245e-07, cumulative = -0.00169139
DICPCG:  Solving for p_rgh, Initial residual = 1.96128e-05, Final residual = 9.62186e-07, No Iterations 15
Velocity BC on patch inlet
3D_2D Absorption BC on patch outlet
"Correction Levels" 1( 0.00133129 )

time step continuity errors : sum local = 8.43702e-06, global = -1.57057e-07, cumulative = -0.00169155
DICPCG:  Solving for p_rgh, Initial residual = 1.55711e-06, Final residual = 9.17192e-08, No Iterations 36
Velocity BC on patch inlet
3D_2D Absorption BC on patch outlet
"Correction Levels" 1( 0.00133129 )

time step continuity errors : sum local = 8.04251e-07, global = 8.81922e-08, cumulative = -0.00169146
smoothSolver:  Solving for omega, Initial residual = 0.000609498, Final residual = 2.40755e-09, No Iterations 2
smoothSolver:  Solving for k, Initial residual = 0.000777912, Final residual = 2.75812e-10, No Iterations 2
ExecutionTime = 13.93 s  ClockTime = 17 s

Courant Number mean: 0.0347223 max: 0.440354
Interface Courant Number mean: 0.00353289 max: 0.366548
deltaT = 0.00310803
Time = 5.13473

PIMPLE: iteration 1
alpha.water BC on patch inlet
MULES: Solving for alpha.water
alpha.water BC on patch inlet
Phase-1 volume fraction = 0.682176  Min(alpha.water) = 0  Max(alpha.water) = 1.0001
alpha.water BC on patch inlet
MULES: Solving for alpha.water
alpha.water BC on patch inlet
Phase-1 volume fraction = 0.682175  Min(alpha.water) = 0  Max(alpha.water) = 1.0001
Velocity BC on patch inlet
3D_2D Absorption BC on patch outlet
"Correction Levels" 1( 0.00135907 )

DICPCG:  Solving for p_rgh, Initial residual = 0.000689569, Final residual = 1.93417e-05, No Iterations 3
time step continuity errors : sum local = 0.000169576, global = 1.10829e-07, cumulative = -0.00169135
DICPCG:  Solving for p_rgh, Initial residual = 1.96457e-05, Final residual = 9.50877e-07, No Iterations 15
Velocity BC on patch inlet
3D_2D Absorption BC on patch outlet
"Correction Levels" 1( 0.00135907 )

time step continuity errors : sum local = 8.33678e-06, global = -2.1124e-07, cumulative = -0.00169156
DICPCG:  Solving for p_rgh, Initial residual = 1.56103e-06, Final residual = 9.39855e-08, No Iterations 35
Velocity BC on patch inlet
3D_2D Absorption BC on patch outlet
"Correction Levels" 1( 0.00135907 )

time step continuity errors : sum local = 8.24009e-07, global = 1.17426e-07, cumulative = -0.00169145
smoothSolver:  Solving for omega, Initial residual = 0.000609276, Final residual = 2.3952e-09, No Iterations 2
smoothSolver:  Solving for k, Initial residual = 0.0007753, Final residual = 2.66472e-10, No Iterations 2
ExecutionTime = 14.27 s  ClockTime = 17 s

Courant Number mean: 0.0347527 max: 0.441498
Interface Courant Number mean: 0.00353783 max: 0.357455
deltaT = 0.00310803
Time = 5.13784

PIMPLE: iteration 1
alpha.water BC on patch inlet
MULES: Solving for alpha.water
alpha.water BC on patch inlet
Phase-1 volume fraction = 0.682173  Min(alpha.water) = 0  Max(alpha.water) = 1.0001
alpha.water BC on patch inlet
MULES: Solving for alpha.water
alpha.water BC on patch inlet
Phase-1 volume fraction = 0.682171  Min(alpha.water) = 0  Max(alpha.water) = 1.0001
Velocity BC on patch inlet
3D_2D Absorption BC on patch outlet
"Correction Levels" 1( 0.00138695 )

DICPCG:  Solving for p_rgh, Initial residual = 0.000686215, Final residual = 1.94593e-05, No Iterations 3
time step continuity errors : sum local = 0.000170591, global = 1.52336e-07, cumulative = -0.00169129
DICPCG:  Solving for p_rgh, Initial residual = 1.97654e-05, Final residual = 9.54039e-07, No Iterations 15
Velocity BC on patch inlet
3D_2D Absorption BC on patch outlet
"Correction Levels" 1( 0.00138695 )

time step continuity errors : sum local = 8.36363e-06, global = -1.59271e-07, cumulative = -0.00169145
DICPCG:  Solving for p_rgh, Initial residual = 1.57007e-06, Final residual = 9.07859e-08, No Iterations 35
Velocity BC on patch inlet
3D_2D Absorption BC on patch outlet
"Correction Levels" 1( 0.00138695 )

time step continuity errors : sum local = 7.95879e-07, global = 1.08891e-07, cumulative = -0.00169134
smoothSolver:  Solving for omega, Initial residual = 0.000608831, Final residual = 2.38886e-09, No Iterations 2
smoothSolver:  Solving for k, Initial residual = 0.000772578, Final residual = 2.63045e-10, No Iterations 2
ExecutionTime = 14.59 s  ClockTime = 18 s

Courant Number mean: 0.0347843 max: 0.440631
Interface Courant Number mean: 0.00353825 max: 0.348331
deltaT = 0.00310803
Time = 5.14095

PIMPLE: iteration 1
alpha.water BC on patch inlet
MULES: Solving for alpha.water
alpha.water BC on patch inlet
Phase-1 volume fraction = 0.682169  Min(alpha.water) = 0  Max(alpha.water) = 1.0001
alpha.water BC on patch inlet
MULES: Solving for alpha.water
alpha.water BC on patch inlet
Phase-1 volume fraction = 0.682166  Min(alpha.water) = 0  Max(alpha.water) = 1.0001
Velocity BC on patch inlet
3D_2D Absorption BC on patch outlet
"Correction Levels" 1( 0.00141493 )

DICPCG:  Solving for p_rgh, Initial residual = 0.000685341, Final residual = 1.95465e-05, No Iterations 3
time step continuity errors : sum local = 0.000171338, global = 1.23906e-07, cumulative = -0.00169122
DICPCG:  Solving for p_rgh, Initial residual = 1.98592e-05, Final residual = 9.64449e-07, No Iterations 15
Velocity BC on patch inlet
3D_2D Absorption BC on patch outlet
"Correction Levels" 1( 0.00141493 )

time step continuity errors : sum local = 8.45399e-06, global = -1.52766e-07, cumulative = -0.00169137
DICPCG:  Solving for p_rgh, Initial residual = 1.57824e-06, Final residual = 8.72659e-08, No Iterations 35
Velocity BC on patch inlet
3D_2D Absorption BC on patch outlet
"Correction Levels" 1( 0.00141493 )

time step continuity errors : sum local = 7.64944e-07, global = 1.00605e-07, cumulative = -0.00169127
smoothSolver:  Solving for omega, Initial residual = 0.000608304, Final residual = 2.39168e-09, No Iterations 2
smoothSolver:  Solving for k, Initial residual = 0.000769927, Final residual = 2.62561e-10, No Iterations 2
ExecutionTime = 14.91 s  ClockTime = 18 s

Courant Number mean: 0.034818 max: 0.442397
Interface Courant Number mean: 0.00354743 max: 0.347796
deltaT = 0.00310803
Time = 5.14406

PIMPLE: iteration 1
alpha.water BC on patch inlet
MULES: Solving for alpha.water
alpha.water BC on patch inlet
Phase-1 volume fraction = 0.682163  Min(alpha.water) = 0  Max(alpha.water) = 1.0001
alpha.water BC on patch inlet
MULES: Solving for alpha.water
alpha.water BC on patch inlet
Phase-1 volume fraction = 0.68216  Min(alpha.water) = 0  Max(alpha.water) = 1.0001
Velocity BC on patch inlet
3D_2D Absorption BC on patch outlet
"Correction Levels" 1( 0.00144301 )

DICPCG:  Solving for p_rgh, Initial residual = 0.000688813, Final residual = 1.96541e-05, No Iterations 3
time step continuity errors : sum local = 0.000172259, global = 1.13612e-07, cumulative = -0.00169116
DICPCG:  Solving for p_rgh, Initial residual = 1.99776e-05, Final residual = 9.64033e-07, No Iterations 15
Velocity BC on patch inlet
3D_2D Absorption BC on patch outlet
"Correction Levels" 1( 0.00144301 )

time step continuity errors : sum local = 8.44936e-06, global = -1.36603e-07, cumulative = -0.0016913
DICPCG:  Solving for p_rgh, Initial residual = 1.55611e-06, Final residual = 9.05035e-08, No Iterations 34
Velocity BC on patch inlet
3D_2D Absorption BC on patch outlet
"Correction Levels" 1( 0.00144301 )

time step continuity errors : sum local = 7.93236e-07, global = 1.15135e-07, cumulative = -0.00169118
smoothSolver:  Solving for omega, Initial residual = 0.000608051, Final residual = 2.35834e-09, No Iterations 2
smoothSolver:  Solving for k, Initial residual = 0.000767312, Final residual = 2.49709e-10, No Iterations 2
ExecutionTime = 15.2 s  ClockTime = 19 s

Courant Number mean: 0.034851 max: 0.445784
Interface Courant Number mean: 0.00352853 max: 0.344371
deltaT = 0.00310803
Time = 5.14716

PIMPLE: iteration 1
alpha.water BC on patch inlet
MULES: Solving for alpha.water
alpha.water BC on patch inlet
Phase-1 volume fraction = 0.682157  Min(alpha.water) = 0  Max(alpha.water) = 1.0001
alpha.water BC on patch inlet
MULES: Solving for alpha.water
alpha.water BC on patch inlet
Phase-1 volume fraction = 0.682154  Min(alpha.water) = 0  Max(alpha.water) = 1.0001
Velocity BC on patch inlet
3D_2D Absorption BC on patch outlet
"Correction Levels" 1( 0.00147118 )

DICPCG:  Solving for p_rgh, Initial residual = 0.000685797, Final residual = 1.96076e-05, No Iterations 3
time step continuity errors : sum local = 0.000171845, global = 2.14938e-07, cumulative = -0.00169097
DICPCG:  Solving for p_rgh, Initial residual = 1.99174e-05, Final residual = 9.51057e-07, No Iterations 15
Velocity BC on patch inlet
3D_2D Absorption BC on patch outlet
"Correction Levels" 1( 0.00147118 )

time step continuity errors : sum local = 8.33509e-06, global = -7.5878e-08, cumulative = -0.00169104
DICPCG:  Solving for p_rgh, Initial residual = 1.53673e-06, Final residual = 8.67481e-08, No Iterations 35
Velocity BC on patch inlet
3D_2D Absorption BC on patch outlet
"Correction Levels" 1( 0.00147118 )

time step continuity errors : sum local = 7.60266e-07, global = 1.03617e-07, cumulative = -0.00169094
smoothSolver:  Solving for omega, Initial residual = 0.000608013, Final residual = 2.32238e-09, No Iterations 2
smoothSolver:  Solving for k, Initial residual = 0.000764494, Final residual = 2.51831e-10, No Iterations 2
ExecutionTime = 15.49 s  ClockTime = 19 s

Courant Number mean: 0.034888 max: 0.445497
Interface Courant Number mean: 0.00354125 max: 0.341748
deltaT = 0.00310803
Time = 5.15027

PIMPLE: iteration 1
alpha.water BC on patch inlet
MULES: Solving for alpha.water
alpha.water BC on patch inlet
Phase-1 volume fraction = 0.68215  Min(alpha.water) = 0  Max(alpha.water) = 1.0001
alpha.water BC on patch inlet
MULES: Solving for alpha.water
alpha.water BC on patch inlet
Phase-1 volume fraction = 0.682146  Min(alpha.water) = 0  Max(alpha.water) = 1.0001
Velocity BC on patch inlet
3D_2D Absorption BC on patch outlet
"Correction Levels" 1( 0.00149945 )

DICPCG:  Solving for p_rgh, Initial residual = 0.000687074, Final residual = 1.9448e-05, No Iterations 3
time step continuity errors : sum local = 0.000170423, global = -2.826e-08, cumulative = -0.00169097
DICPCG:  Solving for p_rgh, Initial residual = 1.98062e-05, Final residual = 9.0436e-07, No Iterations 15
Velocity BC on patch inlet
3D_2D Absorption BC on patch outlet
"Correction Levels" 1( 0.00149945 )

time step continuity errors : sum local = 7.92467e-06, global = -1.57651e-07, cumulative = -0.00169112
DICPCG:  Solving for p_rgh, Initial residual = 1.4995e-06, Final residual = 9.7427e-08, No Iterations 34
Velocity BC on patch inlet
3D_2D Absorption BC on patch outlet
"Correction Levels" 1( 0.00149945 )

time step continuity errors : sum local = 8.53755e-07, global = 9.51166e-08, cumulative = -0.00169103
smoothSolver:  Solving for omega, Initial residual = 0.000607688, Final residual = 2.31876e-09, No Iterations 2
smoothSolver:  Solving for k, Initial residual = 0.000762161, Final residual = 2.46463e-10, No Iterations 2
ExecutionTime = 15.78 s  ClockTime = 19 s

Courant Number mean: 0.0349237 max: 0.442813
Interface Courant Number mean: 0.00353715 max: 0.350895
deltaT = 0.00310803
Time = 5.15338

PIMPLE: iteration 1
alpha.water BC on patch inlet
MULES: Solving for alpha.water
alpha.water BC on patch inlet
Phase-1 volume fraction = 0.682141  Min(alpha.water) = 0  Max(alpha.water) = 1.0001
alpha.water BC on patch inlet
MULES: Solving for alpha.water
alpha.water BC on patch inlet
Phase-1 volume fraction = 0.682137  Min(alpha.water) = 0  Max(alpha.water) = 1.0001
Velocity BC on patch inlet
3D_2D Absorption BC on patch outlet
"Correction Levels" 1( 0.0015278 )

DICPCG:  Solving for p_rgh, Initial residual = 0.000693649, Final residual = 1.94965e-05, No Iterations 3
time step continuity errors : sum local = 0.000170863, global = 9.44956e-08, cumulative = -0.00169093
DICPCG:  Solving for p_rgh, Initial residual = 1.98313e-05, Final residual = 9.7054e-07, No Iterations 15
Velocity BC on patch inlet
3D_2D Absorption BC on patch outlet
"Correction Levels" 1( 0.0015278 )

[...]
Phase-1 volume fraction = 0.668969  Min(alpha.water) = 0  Max(alpha.water) = 1.00005
Velocity BC on patch inlet
3D_2D Absorption BC on patch outlet
"Correction Levels" 1( -0.00695166 )

DICPCG:  Solving for p_rgh, Initial residual = 0.000392434, Final residual = 1.94583e-05, No Iterations 2
time step continuity errors : sum local = 7.69667e-05, global = 4.07222e-08, cumulative = -0.000548012
DICPCG:  Solving for p_rgh, Initial residual = 1.9657e-05, Final residual = 9.36786e-07, No Iterations 11
Velocity BC on patch inlet
3D_2D Absorption BC on patch outlet
"Correction Levels" 1( -0.00695166 )

time step continuity errors : sum local = 3.70601e-06, global = -2.05169e-07, cumulative = -0.000548217
DICPCG:  Solving for p_rgh, Initial residual = 1.26072e-06, Final residual = 9.51186e-08, No Iterations 20
Velocity BC on patch inlet
3D_2D Absorption BC on patch outlet
"Correction Levels" 1( -0.00695166 )

time step continuity errors : sum local = 3.76303e-07, global = 1.36894e-08, cumulative = -0.000548203
smoothSolver:  Solving for omega, Initial residual = 0.000394981, Final residual = 3.11327e-11, No Iterations 2
smoothSolver:  Solving for k, Initial residual = 0.000528295, Final residual = 2.96235e-09, No Iterations 1
ExecutionTime = 673.77 s  ClockTime = 848 s

Courant Number mean: 0.0173681 max: 0.436936
Interface Courant Number mean: 0.002072 max: 0.376459
deltaT = 0.00211636
Time = 9.97672

PIMPLE: iteration 1
alpha.water BC on patch inlet
MULES: Solving for alpha.water
alpha.water BC on patch inlet
Phase-1 volume fraction = 0.668996  Min(alpha.water) = 0  Max(alpha.water) = 1.00005
alpha.water BC on patch inlet
MULES: Solving for alpha.water
alpha.water BC on patch inlet
Phase-1 volume fraction = 0.669022  Min(alpha.water) = 0  Max(alpha.water) = 1.00005
Velocity BC on patch inlet
3D_2D Absorption BC on patch outlet
"Correction Levels" 1( -0.00693282 )

DICPCG:  Solving for p_rgh, Initial residual = 0.000386295, Final residual = 1.04562e-05, No Iterations 3
time step continuity errors : sum local = 4.13644e-05, global = 2.55058e-08, cumulative = -0.000548178
DICPCG:  Solving for p_rgh, Initial residual = 1.06402e-05, Final residual = 5.14965e-07, No Iterations 14
Velocity BC on patch inlet
3D_2D Absorption BC on patch outlet
"Correction Levels" 1( -0.00693282 )

time step continuity errors : sum local = 2.0375e-06, global = -7.34388e-08, cumulative = -0.000548251
DICPCG:  Solving for p_rgh, Initial residual = 6.49817e-07, Final residual = 9.67062e-08, No Iterations 14
Velocity BC on patch inlet
3D_2D Absorption BC on patch outlet
"Correction Levels" 1( -0.00693282 )

time step continuity errors : sum local = 3.82628e-07, global = 5.84681e-09, cumulative = -0.000548245
smoothSolver:  Solving for omega, Initial residual = 0.000395999, Final residual = 3.05953e-11, No Iterations 2
smoothSolver:  Solving for k, Initial residual = 0.000531299, Final residual = 2.96498e-09, No Iterations 1
ExecutionTime = 674.1 s  ClockTime = 848 s

Courant Number mean: 0.0173648 max: 0.429016
Interface Courant Number mean: 0.00206003 max: 0.364635
deltaT = 0.002328
Time = 9.97905

PIMPLE: iteration 1
alpha.water BC on patch inlet
MULES: Solving for alpha.water
alpha.water BC on patch inlet
Phase-1 volume fraction = 0.669052  Min(alpha.water) = 0  Max(alpha.water) = 1.00005
alpha.water BC on patch inlet
MULES: Solving for alpha.water
alpha.water BC on patch inlet
Phase-1 volume fraction = 0.669081  Min(alpha.water) = 0  Max(alpha.water) = 1.00005
Velocity BC on patch inlet
3D_2D Absorption BC on patch outlet
"Correction Levels" 1( -0.00690857 )

DICPCG:  Solving for p_rgh, Initial residual = 0.000420136, Final residual = 1.14961e-05, No Iterations 3
time step continuity errors : sum local = 5.49612e-05, global = 2.41104e-08, cumulative = -0.000548221
DICPCG:  Solving for p_rgh, Initial residual = 1.16978e-05, Final residual = 5.21454e-07, No Iterations 15
Velocity BC on patch inlet
3D_2D Absorption BC on patch outlet
"Correction Levels" 1( -0.00690857 )

time step continuity errors : sum local = 2.4934e-06, global = -9.18728e-08, cumulative = -0.000548313
DICPCG:  Solving for p_rgh, Initial residual = 6.89666e-07, Final residual = 8.71059e-08, No Iterations 15
Velocity BC on patch inlet
3D_2D Absorption BC on patch outlet
"Correction Levels" 1( -0.00690857 )

time step continuity errors : sum local = 4.16512e-07, global = 1.58401e-09, cumulative = -0.000548312
smoothSolver:  Solving for omega, Initial residual = 0.000436897, Final residual = 4.76638e-11, No Iterations 2
smoothSolver:  Solving for k, Initial residual = 0.000588034, Final residual = 3.92982e-09, No Iterations 1
ExecutionTime = 674.42 s  ClockTime = 849 s

Courant Number mean: 0.0190977 max: 0.457114
Interface Courant Number mean: 0.00227178 max: 0.387084
deltaT = 0.002328
Time = 9.98138

PIMPLE: iteration 1
alpha.water BC on patch inlet
MULES: Solving for alpha.water
alpha.water BC on patch inlet
Phase-1 volume fraction = 0.669111  Min(alpha.water) = 0  Max(alpha.water) = 1.00005
alpha.water BC on patch inlet
MULES: Solving for alpha.water
alpha.water BC on patch inlet
Phase-1 volume fraction = 0.669141  Min(alpha.water) = 0  Max(alpha.water) = 1.00005
Velocity BC on patch inlet
3D_2D Absorption BC on patch outlet
"Correction Levels" 1( -0.00688063 )

DICPCG:  Solving for p_rgh, Initial residual = 0.0004271, Final residual = 1.15545e-05, No Iterations 3
time step continuity errors : sum local = 5.525e-05, global = 2.57256e-08, cumulative = -0.000548286
DICPCG:  Solving for p_rgh, Initial residual = 1.17514e-05, Final residual = 5.24642e-07, No Iterations 15
Velocity BC on patch inlet
3D_2D Absorption BC on patch outlet
"Correction Levels" 1( -0.00688063 )

time step continuity errors : sum local = 2.50908e-06, global = -9.45481e-08, cumulative = -0.00054838
DICPCG:  Solving for p_rgh, Initial residual = 6.95686e-07, Final residual = 9.74471e-08, No Iterations 15
Velocity BC on patch inlet
3D_2D Absorption BC on patch outlet
"Correction Levels" 1( -0.00688063 )

time step continuity errors : sum local = 4.66046e-07, global = 1.89582e-09, cumulative = -0.000548379
smoothSolver:  Solving for omega, Initial residual = 0.000438107, Final residual = 4.68158e-11, No Iterations 2
smoothSolver:  Solving for k, Initial residual = 0.000591605, Final residual = 3.93178e-09, No Iterations 1
ExecutionTime = 674.75 s  ClockTime = 849 s

Courant Number mean: 0.0190933 max: 0.465615
Interface Courant Number mean: 0.00229251 max: 0.44151
deltaT = 0.002328
Time = 9.9837

PIMPLE: iteration 1
alpha.water BC on patch inlet
MULES: Solving for alpha.water
alpha.water BC on patch inlet
Phase-1 volume fraction = 0.669171  Min(alpha.water) = 0  Max(alpha.water) = 1.00005
alpha.water BC on patch inlet
MULES: Solving for alpha.water
alpha.water BC on patch inlet
Phase-1 volume fraction = 0.669201  Min(alpha.water) = 0  Max(alpha.water) = 1.00005
Velocity BC on patch inlet
3D_2D Absorption BC on patch outlet
"Correction Levels" 1( -0.00684901 )

DICPCG:  Solving for p_rgh, Initial residual = 0.000436669, Final residual = 2.16507e-05, No Iterations 2
time step continuity errors : sum local = 0.000103549, global = 2.54904e-08, cumulative = -0.000548353
DICPCG:  Solving for p_rgh, Initial residual = 2.18575e-05, Final residual = 1.04581e-06, No Iterations 9
Velocity BC on patch inlet
3D_2D Absorption BC on patch outlet
"Correction Levels" 1( -0.00684901 )

time step continuity errors : sum local = 5.00257e-06, global = -4.17071e-07, cumulative = -0.00054877
DICPCG:  Solving for p_rgh, Initial residual = 1.43938e-06, Final residual = 9.97423e-08, No Iterations 22
Velocity BC on patch inlet
3D_2D Absorption BC on patch outlet
"Correction Levels" 1( -0.00684901 )

time step continuity errors : sum local = 4.77124e-07, global = 1.46923e-08, cumulative = -0.000548755
smoothSolver:  Solving for omega, Initial residual = 0.000439256, Final residual = 4.60697e-11, No Iterations 2
smoothSolver:  Solving for k, Initial residual = 0.000595064, Final residual = 3.93159e-09, No Iterations 1
ExecutionTime = 675.05 s  ClockTime = 849 s

Courant Number mean: 0.0190876 max: 0.464136
Interface Courant Number mean: 0.00229494 max: 0.425013
deltaT = 0.002328
Time = 9.98603

PIMPLE: iteration 1
alpha.water BC on patch inlet
MULES: Solving for alpha.water
alpha.water BC on patch inlet
Phase-1 volume fraction = 0.669231  Min(alpha.water) = 0  Max(alpha.water) = 1.00005
alpha.water BC on patch inlet
MULES: Solving for alpha.water
alpha.water BC on patch inlet
Phase-1 volume fraction = 0.669261  Min(alpha.water) = 0  Max(alpha.water) = 1.00005
Velocity BC on patch inlet
3D_2D Absorption BC on patch outlet
"Correction Levels" 1( -0.00681365 )

DICPCG:  Solving for p_rgh, Initial residual = 0.000438067, Final residual = 2.16409e-05, No Iterations 2
time step continuity errors : sum local = 0.000103522, global = 4.47818e-08, cumulative = -0.000548711
DICPCG:  Solving for p_rgh, Initial residual = 2.18398e-05, Final residual = 1.03229e-06, No Iterations 9
Velocity BC on patch inlet
3D_2D Absorption BC on patch outlet
"Correction Levels" 1( -0.00681365 )

time step continuity errors : sum local = 4.93886e-06, global = -4.20654e-07, cumulative = -0.000549131
DICPCG:  Solving for p_rgh, Initial residual = 1.4152e-06, Final residual = 9.95568e-08, No Iterations 19
Velocity BC on patch inlet
3D_2D Absorption BC on patch outlet
"Correction Levels" 1( -0.00681365 )

time step continuity errors : sum local = 4.76328e-07, global = 3.09141e-08, cumulative = -0.0005491
smoothSolver:  Solving for omega, Initial residual = 0.000440422, Final residual = 4.48421e-11, No Iterations 2
smoothSolver:  Solving for k, Initial residual = 0.000598431, Final residual = 3.93997e-09, No Iterations 1
ExecutionTime = 675.4 s  ClockTime = 850 s

Courant Number mean: 0.0190828 max: 0.453967
Interface Courant Number mean: 0.00230189 max: 0.409174
deltaT = 0.002328
Time = 9.98836

PIMPLE: iteration 1
alpha.water BC on patch inlet
MULES: Solving for alpha.water
alpha.water BC on patch inlet
Phase-1 volume fraction = 0.669291  Min(alpha.water) = 0  Max(alpha.water) = 1.00005
alpha.water BC on patch inlet
MULES: Solving for alpha.water
alpha.water BC on patch inlet
Phase-1 volume fraction = 0.669322  Min(alpha.water) = 0  Max(alpha.water) = 1.00004
Velocity BC on patch inlet
3D_2D Absorption BC on patch outlet
"Correction Levels" 1( -0.00677451 )

DICPCG:  Solving for p_rgh, Initial residual = 0.000440576, Final residual = 2.15887e-05, No Iterations 2
time step continuity errors : sum local = 0.000103291, global = 5.58224e-08, cumulative = -0.000549045
DICPCG:  Solving for p_rgh, Initial residual = 2.17751e-05, Final residual = 1.04755e-06, No Iterations 9
Velocity BC on patch inlet
3D_2D Absorption BC on patch outlet
"Correction Levels" 1( -0.00677451 )

time step continuity errors : sum local = 5.0128e-06, global = -4.23357e-07, cumulative = -0.000549468
DICPCG:  Solving for p_rgh, Initial residual = 1.41847e-06, Final residual = 9.65727e-08, No Iterations 23
Velocity BC on patch inlet
3D_2D Absorption BC on patch outlet
"Correction Levels" 1( -0.00677451 )

time step continuity errors : sum local = 4.62134e-07, global = 1.52583e-08, cumulative = -0.000549453
smoothSolver:  Solving for omega, Initial residual = 0.000441519, Final residual = 4.37942e-11, No Iterations 2
smoothSolver:  Solving for k, Initial residual = 0.000602006, Final residual = 3.93911e-09, No Iterations 1
ExecutionTime = 675.74 s  ClockTime = 850 s

Courant Number mean: 0.0190781 max: 0.444237
Interface Courant Number mean: 0.00229321 max: 0.395435
deltaT = 0.002328
Time = 9.99069

PIMPLE: iteration 1
alpha.water BC on patch inlet
MULES: Solving for alpha.water
alpha.water BC on patch inlet
Phase-1 volume fraction = 0.669352  Min(alpha.water) = 0  Max(alpha.water) = 1.00004
alpha.water BC on patch inlet
MULES: Solving for alpha.water
alpha.water BC on patch inlet
Phase-1 volume fraction = 0.669383  Min(alpha.water) = 0  Max(alpha.water) = 1.00004
Velocity BC on patch inlet
3D_2D Absorption BC on patch outlet
"Correction Levels" 1( -0.00673157 )

DICPCG:  Solving for p_rgh, Initial residual = 0.000445256, Final residual = 2.15931e-05, No Iterations 2
time step continuity errors : sum local = 0.000103335, global = 3.09674e-08, cumulative = -0.000549422
DICPCG:  Solving for p_rgh, Initial residual = 2.18061e-05, Final residual = 1.05512e-06, No Iterations 9
Velocity BC on patch inlet
3D_2D Absorption BC on patch outlet
"Correction Levels" 1( -0.00673157 )

time step continuity errors : sum local = 5.05017e-06, global = -4.24361e-07, cumulative = -0.000549846
DICPCG:  Solving for p_rgh, Initial residual = 1.43738e-06, Final residual = 9.73302e-08, No Iterations 20
Velocity BC on patch inlet
3D_2D Absorption BC on patch outlet
"Correction Levels" 1( -0.00673157 )

time step continuity errors : sum local = 4.65865e-07, global = 2.30467e-08, cumulative = -0.000549823
smoothSolver:  Solving for omega, Initial residual = 0.000442599, Final residual = 4.312e-11, No Iterations 2
smoothSolver:  Solving for k, Initial residual = 0.000605492, Final residual = 3.94645e-09, No Iterations 1
ExecutionTime = 676.08 s  ClockTime = 851 s

Courant Number mean: 0.0190728 max: 0.444405
Interface Courant Number mean: 0.00231804 max: 0.428095
deltaT = 0.002328
Time = 9.99302

PIMPLE: iteration 1
alpha.water BC on patch inlet
MULES: Solving for alpha.water
alpha.water BC on patch inlet
Phase-1 volume fraction = 0.669414  Min(alpha.water) = 0  Max(alpha.water) = 1.00004
alpha.water BC on patch inlet
MULES: Solving for alpha.water
alpha.water BC on patch inlet
Phase-1 volume fraction = 0.669445  Min(alpha.water) = 0  Max(alpha.water) = 1.00004
Velocity BC on patch inlet
3D_2D Absorption BC on patch outlet
"Correction Levels" 1( -0.00668477 )

DICPCG:  Solving for p_rgh, Initial residual = 0.000448647, Final residual = 2.16577e-05, No Iterations 2
time step continuity errors : sum local = 0.000103664, global = 4.36811e-08, cumulative = -0.000549779
DICPCG:  Solving for p_rgh, Initial residual = 2.18453e-05, Final residual = 1.05833e-06, No Iterations 9
Velocity BC on patch inlet
3D_2D Absorption BC on patch outlet
"Correction Levels" 1( -0.00668477 )

time step continuity errors : sum local = 5.06647e-06, global = -4.18463e-07, cumulative = -0.000550198
DICPCG:  Solving for p_rgh, Initial residual = 1.4403e-06, Final residual = 9.51912e-08, No Iterations 22
Velocity BC on patch inlet
3D_2D Absorption BC on patch outlet
"Correction Levels" 1( -0.00668477 )

time step continuity errors : sum local = 4.55713e-07, global = 1.50072e-08, cumulative = -0.000550183
smoothSolver:  Solving for omega, Initial residual = 0.000443595, Final residual = 4.19225e-11, No Iterations 2
smoothSolver:  Solving for k, Initial residual = 0.0006089, Final residual = 3.94132e-09, No Iterations 1
ExecutionTime = 676.38 s  ClockTime = 851 s

Courant Number mean: 0.0190676 max: 0.436499
Interface Courant Number mean: 0.00232348 max: 0.414679
deltaT = 0.002328
Time = 9.99534

PIMPLE: iteration 1
alpha.water BC on patch inlet
MULES: Solving for alpha.water
alpha.water BC on patch inlet
Phase-1 volume fraction = 0.669476  Min(alpha.water) = 0  Max(alpha.water) = 1.00004
alpha.water BC on patch inlet
MULES: Solving for alpha.water
alpha.water BC on patch inlet
Phase-1 volume fraction = 0.669507  Min(alpha.water) = 0  Max(alpha.water) = 1.00004
Velocity BC on patch inlet
3D_2D Absorption BC on patch outlet
"Correction Levels" 1( -0.00663408 )

DICPCG:  Solving for p_rgh, Initial residual = 0.000452737, Final residual = 2.16479e-05, No Iterations 2
time step continuity errors : sum local = 0.000103634, global = 3.38005e-08, cumulative = -0.000550149
DICPCG:  Solving for p_rgh, Initial residual = 2.18344e-05, Final residual = 1.05022e-06, No Iterations 9
Velocity BC on patch inlet
3D_2D Absorption BC on patch outlet
"Correction Levels" 1( -0.00663408 )

time step continuity errors : sum local = 5.02846e-06, global = -4.04742e-07, cumulative = -0.000550554
DICPCG:  Solving for p_rgh, Initial residual = 1.43241e-06, Final residual = 9.78076e-08, No Iterations 21
Velocity BC on patch inlet
3D_2D Absorption BC on patch outlet
"Correction Levels" 1( -0.00663408 )

time step continuity errors : sum local = 4.68315e-07, global = 1.76795e-08, cumulative = -0.000550536
smoothSolver:  Solving for omega, Initial residual = 0.00044457, Final residual = 4.06568e-11, No Iterations 2
smoothSolver:  Solving for k, Initial residual = 0.000612186, Final residual = 3.94527e-09, No Iterations 1
ExecutionTime = 676.69 s  ClockTime = 852 s

Courant Number mean: 0.0190636 max: 0.42594
Interface Courant Number mean: 0.0023267 max: 0.401268
deltaT = 0.002328
Time = 9.99767

PIMPLE: iteration 1
alpha.water BC on patch inlet
MULES: Solving for alpha.water
alpha.water BC on patch inlet
Phase-1 volume fraction = 0.669538  Min(alpha.water) = 0  Max(alpha.water) = 1.00004
alpha.water BC on patch inlet
MULES: Solving for alpha.water
alpha.water BC on patch inlet
Phase-1 volume fraction = 0.66957  Min(alpha.water) = 0  Max(alpha.water) = 1.00004
Velocity BC on patch inlet
3D_2D Absorption BC on patch outlet
"Correction Levels" 1( -0.00657945 )

DICPCG:  Solving for p_rgh, Initial residual = 0.000457001, Final residual = 2.16758e-05, No Iterations 2
time step continuity errors : sum local = 0.000103785, global = 3.7408e-08, cumulative = -0.000550499
DICPCG:  Solving for p_rgh, Initial residual = 2.1848e-05, Final residual = 1.05897e-06, No Iterations 9
Velocity BC on patch inlet
3D_2D Absorption BC on patch outlet
"Correction Levels" 1( -0.00657945 )

time step continuity errors : sum local = 5.07126e-06, global = -4.01651e-07, cumulative = -0.0005509
DICPCG:  Solving for p_rgh, Initial residual = 1.42345e-06, Final residual = 9.09121e-08, No Iterations 23
Velocity BC on patch inlet
3D_2D Absorption BC on patch outlet
"Correction Levels" 1( -0.00657945 )

time step continuity errors : sum local = 4.35372e-07, global = 1.34874e-08, cumulative = -0.000550887
smoothSolver:  Solving for omega, Initial residual = 0.000445549, Final residual = 3.92371e-11, No Iterations 2
smoothSolver:  Solving for k, Initial residual = 0.00061536, Final residual = 3.94959e-09, No Iterations 1
ExecutionTime = 677.03 s  ClockTime = 852 s

Courant Number mean: 0.0190603 max: 0.43409
Interface Courant Number mean: 0.00230002 max: 0.388725
deltaT = 0.002328
Time = 10

PIMPLE: iteration 1
alpha.water BC on patch inlet
MULES: Solving for alpha.water
alpha.water BC on patch inlet
Phase-1 volume fraction = 0.669601  Min(alpha.water) = 0  Max(alpha.water) = 1.00004
alpha.water BC on patch inlet
MULES: Solving for alpha.water
alpha.water BC on patch inlet
Phase-1 volume fraction = 0.669633  Min(alpha.water) = 0  Max(alpha.water) = 1.00004
Velocity BC on patch inlet
3D_2D Absorption BC on patch outlet
"Correction Levels" 1( -0.00652084 )

DICPCG:  Solving for p_rgh, Initial residual = 0.000465701, Final residual = 2.17816e-05, No Iterations 2
time step continuity errors : sum local = 0.000104315, global = 3.524e-08, cumulative = -0.000550852
DICPCG:  Solving for p_rgh, Initial residual = 2.19204e-05, Final residual = 1.07849e-06, No Iterations 9
Velocity BC on patch inlet
3D_2D Absorption BC on patch outlet
"Correction Levels" 1( -0.00652084 )

time step continuity errors : sum local = 5.16596e-06, global = -4.09649e-07, cumulative = -0.000551261
DICPCG:  Solving for p_rgh, Initial residual = 1.42719e-06, Final residual = 9.58135e-08, No Iterations 22
Velocity BC on patch inlet
3D_2D Absorption BC on patch outlet
"Correction Levels" 1( -0.00652084 )

time step continuity errors : sum local = 4.58954e-07, global = 1.38926e-08, cumulative = -0.000551247
smoothSolver:  Solving for omega, Initial residual = 0.000446498, Final residual = 3.83694e-11, No Iterations 2
smoothSolver:  Solving for k, Initial residual = 0.00061843, Final residual = 3.95544e-09, No Iterations 1
ExecutionTime = 677.74 s  ClockTime = 853 s

End

